
 *DO LOOP ON PARAMETER= I FROM  1.0000     TO  62.000     BY  1.0000    


 USE LOAD STEP     1  SUBSTEP     1  FOR LOAD CASE 0 

 SET COMMAND GOT LOAD STEP=     1  SUBSTEP=     1  CUMULATIVE ITERATION=     1
   TIME/FREQUENCY=  8.1532    
 TITLE= unsaved_project--Modal (A5)                                             

 INTERACTIVE LINES PER PAGE     =        20
 INTERACTIVE CHARACTERS PER LINE=       256
 FILE OUTPUT LINES PER PAGE     =      1000
 FILE OUTPUT CHARACTERS PER LINE=       140

 PRINT DOF  NODAL SOLUTION PER NODE

 *** ANSYS - ENGINEERING ANALYSIS SYSTEM  RELEASE 2019 R3          19.5     ***
 DISTRIBUTED ANSYS Academic Research                           

 00208316  VERSION=WINDOWS x64   15:20:36  MAY 27, 2020 CP=      2.219

 unsaved_project--Modal (A5)                                                   


 
  ***** POST1 NODAL DEGREE OF FREEDOM LISTING *****                            
 
  LOAD STEP=     1  SUBSTEP=     1                                             
   FREQ=    8.1532      LOAD CASE=   0                                         
 
  THE FOLLOWING DEGREE OF FREEDOM RESULTS ARE IN THE GLOBAL COORDINATE SYSTEM  
 
    NODE       UX           UY           UZ           ROTX         ROTY         ROTZ  
       1   0.0000       0.0000       0.0000       0.0000       0.0000       0.0000     
       2   0.0000       1.1981       0.0000     -0.99396E-015-0.14742E-014 0.23368E-001
       3  0.31447E-014 0.13758      0.31164E-014 0.33825E-014-0.24915E-015 0.81730E-002
       4 -0.51842E-014 0.54120     -0.36031E-014 0.13267E-014 0.30620E-014 0.15962E-001
       5   0.0000       4.5604       0.0000      0.50842E-015 0.21315E-015 0.43289E-001
       6 -0.43436E-014  2.0954     -0.17446E-013 0.17372E-014 0.23130E-014 0.30390E-001
       7  0.21858E-014  3.2204      0.12818E-013-0.20046E-014 0.10568E-014 0.37030E-001
       8   0.0000       9.7438       0.0000      0.50492E-014 0.90501E-015 0.59799E-001
       9 -0.59807E-014  6.1027     -0.87640E-014-0.36325E-014-0.20731E-016 0.49168E-001
      10  0.39326E-014  7.8347     -0.10983E-014 0.65696E-015-0.83230E-015 0.54670E-001
      11   0.0000       16.411       0.0000     -0.55982E-016 0.42182E-015 0.72985E-001
      12 -0.85901E-015  11.818     -0.82141E-014-0.21101E-014 0.16218E-014 0.64557E-001
      13 -0.23476E-014  14.044      0.77281E-014 0.24927E-014 0.21990E-014 0.68951E-001
      14   0.0000       24.237       0.0000     -0.18226E-014 0.17498E-014 0.83011E-001
      15  0.52230E-014  18.906      0.23689E-014 0.48241E-014 0.33230E-014 0.76668E-001
      16 -0.53165E-014  21.519     -0.36678E-014-0.20078E-014 0.17247E-014 0.80007E-001
      17   0.0000       32.918       0.0000     -0.72825E-015 0.74711E-014 0.90126E-001
      18 -0.44476E-014  27.050      0.67765E-014-0.32905E-015-0.25121E-014 0.85691E-001
      19  0.68834E-014  29.947     -0.12112E-013-0.85375E-016 0.72546E-015 0.88058E-001
      20   0.0000       42.178       0.0000      0.29136E-014 0.90569E-015 0.94685E-001
      21  0.58044E-014  35.952      0.27070E-013-0.13916E-014-0.13436E-014 0.91909E-001
      22 -0.80723E-015  39.042     -0.10422E-013-0.12730E-014 0.67173E-015 0.93423E-001
      23   0.0000       51.786       0.0000     -0.15090E-014-0.47419E-014 0.97150E-001
      24  0.42634E-014  45.352      0.17894E-013-0.10210E-014 0.16052E-014 0.95713E-001
      25 -0.94040E-015  48.557      0.93180E-015 0.22509E-015-0.30132E-014 0.96528E-001
      26   0.0000       61.559       0.0000      0.26352E-014 0.51877E-015 0.98104E-001
      27 -0.43424E-014  55.032      0.10886E-014-0.19221E-014-0.27750E-014 0.97604E-001
      28  0.34169E-014  58.291      0.17759E-014-0.38576E-014 0.17522E-014 0.97913E-001
      29   0.0000       71.380       0.0000     -0.16980E-014 0.51506E-015 0.98246E-001
      30  0.35086E-014  64.831     -0.11876E-013-0.71428E-015-0.94477E-015 0.98203E-001
      31 -0.30827E-014  68.105      0.22246E-013-0.13209E-014 0.98427E-015 0.98241E-001

 MAXIMUM ABSOLUTE VALUES
 NODE          0           29            0            0            0           29
 VALUE    0.0000       71.380       0.0000       0.0000       0.0000      0.98246E-001

 *ENDDO  INDEX= I                               

 *** ANSYS - ENGINEERING ANALYSIS SYSTEM  RELEASE 2019 R3          19.5     ***
 DISTRIBUTED ANSYS Academic Research                           

 00208316  VERSION=WINDOWS x64   15:20:36  MAY 27, 2020 CP=      2.281

 unsaved_project--Modal (A5)                                                   


 
  ***** POST1 NODAL DEGREE OF FREEDOM LISTING *****                            
 
  LOAD STEP=     1  SUBSTEP=     2                                             
   FREQ=    51.071      LOAD CASE=   0                                         
 
  THE FOLLOWING DEGREE OF FREEDOM RESULTS ARE IN THE GLOBAL COORDINATE SYSTEM  
 
    NODE       UX           UY           UZ           ROTX         ROTY         ROTZ  
       1   0.0000       0.0000       0.0000       0.0000       0.0000       0.0000     
       2   0.0000      -6.6238       0.0000      0.10531E-013 0.84185E-014-0.11961     
       3  0.22118E-014-0.83292     -0.83114E-014-0.70478E-014 0.88526E-014-0.48198E-001
       4  0.36699E-013 -3.1334      0.16931E-012 0.75028E-014-0.18829E-013-0.88056E-001
       5   0.0000      -21.502       0.0000      0.15382E-013 0.49926E-014-0.16569     
       6  0.28719E-013 -11.029      0.53801E-013-0.10391E-013-0.60754E-014-0.14295     
       7  0.13807E-013 -16.076      0.45610E-013 0.27546E-013-0.71297E-014-0.15822     
       8   0.0000      -37.563       0.0000      0.54760E-013-0.84968E-014-0.14506     
       9  0.34845E-013 -27.051      0.14754E-013 0.67776E-013 0.36220E-014-0.16567     
      10 -0.38211E-013 -32.480      0.26128E-013 0.25118E-014 0.79514E-014-0.15862     
      11   0.0000      -48.786       0.0000     -0.37837E-013-0.41903E-014-0.72041E-001
      12  0.28607E-013 -42.094      0.87571E-013 0.25687E-013-0.89434E-014-0.12562     
      13 -0.13596E-013 -45.888      0.71352E-013-0.15948E-013-0.10684E-013-0.10101     
      14   0.0000      -50.935       0.0000     -0.12939E-013 0.10246E-014 0.32413E-001
      15  0.30065E-014 -50.657      0.13409E-012-0.69405E-013-0.16427E-013-0.39545E-001
      16  0.35446E-013 -51.397      0.31759E-012-0.61852E-013-0.13439E-014-0.44216E-002
      17   0.0000      -42.068       0.0000      0.15194E-013-0.28811E-013 0.14411     
      18  0.35294E-013 -49.229      0.66795E-013-0.17547E-013 0.10395E-013 0.70041E-001
      19 -0.12021E-013 -46.267      0.37354E-013 0.10374E-013 0.17760E-014 0.10756     
      20   0.0000      -22.623       0.0000     -0.86778E-014 0.50339E-014 0.24050     
      21 -0.48242E-014 -36.676     -0.21755E-012 0.33472E-013 0.10483E-013 0.17891     
      22  0.97206E-014 -30.164      0.45301E-013 0.21136E-013-0.18989E-013 0.21124     
      23   0.0000       5.0016       0.0000      0.26072E-013 0.29198E-013 0.30588     
      24 -0.47452E-013 -14.164     -0.98414E-013 0.17888E-013-0.20503E-014 0.26622     
      25 -0.81586E-014 -4.9121     -0.13128E-012 0.33318E-013 0.12329E-013 0.28807     
      26   0.0000       37.378       0.0000      0.33228E-014-0.23582E-014 0.33597     
      27  0.65489E-013  15.441      0.76004E-014 0.26890E-013 0.37628E-014 0.31964     
      28 -0.24323E-013  26.274     -0.52209E-013-0.28028E-013-0.43198E-014 0.32955     
      29   0.0000       71.357       0.0000     -0.51756E-013-0.29050E-014 0.34106     
      30 -0.10284E-013  48.644     -0.19446E-012-0.37028E-013 0.14299E-013 0.33948     
      31  0.67629E-013  59.989     -0.97614E-013-0.15851E-013-0.11016E-013 0.34085     

 MAXIMUM ABSOLUTE VALUES
 NODE          0           29            0            0            0           29
 VALUE    0.0000       71.357       0.0000       0.0000       0.0000      0.34106     

 *** ANSYS - ENGINEERING ANALYSIS SYSTEM  RELEASE 2019 R3          19.5     ***
 DISTRIBUTED ANSYS Academic Research                           

 00208316  VERSION=WINDOWS x64   15:20:36  MAY 27, 2020 CP=      2.281

 unsaved_project--Modal (A5)                                                   


 
  ***** POST1 NODAL DEGREE OF FREEDOM LISTING *****                            
 
  LOAD STEP=     1  SUBSTEP=     3                                             
   FREQ=    142.89      LOAD CASE=   0                                         
 
  THE FOLLOWING DEGREE OF FREEDOM RESULTS ARE IN THE GLOBAL COORDINATE SYSTEM  
 
    NODE       UX           UY           UZ           ROTX         ROTY         ROTZ  
       1   0.0000       0.0000       0.0000       0.0000       0.0000       0.0000     
       2   0.0000       16.320       0.0000      0.75939E-014-0.23960E-013 0.26798     
       3  0.81632E-013  2.2567      0.23090E-012 0.42506E-013-0.47161E-013 0.12725     
       4 -0.42584E-013  8.1178     -0.45108E-012-0.93024E-014 0.66703E-013 0.21633     
       5   0.0000       43.172       0.0000      0.31081E-014-0.24581E-013 0.22171     
       6  0.11837E-012  25.641     -0.34565E-012 0.88963E-013 0.14019E-013 0.28391     
       7  0.12173E-012  34.933     -0.28596E-012-0.90618E-013 0.21009E-013 0.26707     
       8   0.0000       53.969       0.0000     -0.28413E-012 0.27091E-013-0.25681E-001
       9 -0.47216E-012  49.493     -0.56891E-013-0.25337E-012-0.25227E-013 0.15334     
      10 -0.16689E-012  53.236     -0.14434E-012 0.78560E-013-0.33912E-013 0.68467E-001
      11   0.0000       37.511       0.0000      0.29243E-013 0.16067E-013-0.28942     
      12 -0.33479E-012  51.508      0.23878E-013-0.10555E-012 0.26001E-013-0.12156     
      13 -0.10397E-012  45.919     -0.14479E-013-0.12451E-013 0.45841E-013-0.21176     
      14   0.0000       1.3828       0.0000     -0.14917E-012-0.79696E-014-0.39549     
      15  0.31454E-012  26.801     -0.15331E-012 0.10168E-012 0.39835E-013-0.34868     
      16  0.25384E-012  14.486     -0.10208E-011 0.97046E-013 0.17914E-014-0.38500     
      17   0.0000      -33.816       0.0000     -0.30592E-012 0.86979E-013-0.26990     
      18  0.21306E-012 -11.621     -0.45077E-012-0.11976E-012-0.30197E-013-0.37903     
      19  0.36575E-012 -23.634     -0.27308E-012-0.29797E-012-0.18841E-013-0.33634     
      20   0.0000      -46.905       0.0000     -0.24171E-012-0.37311E-013 0.25639E-001
      21  0.28771E-012 -41.438      0.77229E-012-0.40662E-012-0.46134E-013-0.18375     
      22  0.30056E-012 -45.928     -0.38820E-013-0.35292E-012 0.87420E-013-0.83191E-001
      23   0.0000      -28.162       0.0000     -0.31240E-012-0.10310E-012 0.33755     
      24 -0.25008E-012 -44.202      0.37081E-012-0.32219E-012 0.28167E-014 0.13621     
      25 -0.40321E-012 -37.869      0.80212E-012-0.37661E-012-0.45762E-013 0.24210     
      26   0.0000       16.309       0.0000     -0.29541E-012 0.27508E-013 0.52300     
      27 -0.11567E-012 -15.511     -0.23398E-012-0.36213E-012-0.70445E-014 0.41791     
      28  0.28852E-012-0.47676      0.40838E-012-0.51056E-013 0.28139E-014 0.48010     
      29   0.0000       71.319       0.0000      0.20893E-013-0.20032E-013 0.55938     
      30  0.55611E-012  34.215      0.15556E-012-0.44526E-013-0.46099E-013 0.54772     
      31  0.17235E-012  52.683     -0.63416E-012-0.19861E-012 0.25489E-013 0.55781     

 MAXIMUM ABSOLUTE VALUES
 NODE          0           29            0            0            0           29
 VALUE    0.0000       71.319       0.0000       0.0000       0.0000      0.55938     

 *** ANSYS - ENGINEERING ANALYSIS SYSTEM  RELEASE 2019 R3          19.5     ***
 DISTRIBUTED ANSYS Academic Research                           

 00208316  VERSION=WINDOWS x64   15:20:36  MAY 27, 2020 CP=      2.281

 unsaved_project--Modal (A5)                                                   


 
  ***** POST1 NODAL DEGREE OF FREEDOM LISTING *****                            
 
  LOAD STEP=     1  SUBSTEP=     4                                             
   FREQ=    279.71      LOAD CASE=   0                                         
 
  THE FOLLOWING DEGREE OF FREEDOM RESULTS ARE IN THE GLOBAL COORDINATE SYSTEM  
 
    NODE       UX           UY           UZ           ROTX         ROTY         ROTZ  
       1   0.0000       0.0000       0.0000       0.0000       0.0000       0.0000     
       2   0.0000      -27.560       0.0000     -0.15325E-012 0.65741E-014-0.39467     
       3  0.12920E-011 -4.2678      0.11006E-011 0.65902E-012-0.13436E-012-0.23375     
       4  0.34842E-012 -14.587      0.49275E-011 0.22992E-012 0.20547E-012-0.36362     
       5   0.0000      -53.798       0.0000      0.38519E-012 0.14018E-012-0.41851E-001
       6 -0.60089E-012 -40.057     -0.56750E-012-0.39773E-013 0.20079E-012-0.33826     
       7 -0.69011E-013 -49.445      0.47797E-011-0.67468E-012 0.26466E-013-0.21261     
       8   0.0000      -30.898       0.0000      0.36368E-012 0.20642E-012 0.46250     
       9 -0.48897E-012 -52.069     -0.10698E-011-0.98225E-012-0.26646E-012 0.14619     
      10  0.14801E-011 -44.161      0.25236E-011 0.10100E-011-0.22276E-012 0.32295     
      11   0.0000       22.565       0.0000     -0.14846E-011 0.16726E-012 0.49769     
      12  0.21094E-012 -13.883      0.13677E-011 0.23088E-012 0.20722E-012 0.54459     
      13  0.10578E-011  4.7363      0.58509E-011-0.48698E-012 0.25088E-012 0.55714     
      14   0.0000       50.444       0.0000     -0.16177E-011 0.11197E-012 0.26688E-002
      15  0.17349E-012  37.292      0.27981E-011-0.11886E-011 0.29505E-012 0.37360     
      16 -0.60210E-012  47.003      0.38701E-011-0.13450E-011 0.80479E-013 0.20102     
      17   0.0000       23.256       0.0000      0.34612E-012 0.93538E-012-0.48740     
      18 -0.12033E-011  47.186      0.64597E-011-0.14173E-012-0.41054E-012-0.19516     
      19  0.12460E-013  37.692      0.28588E-011-0.23955E-012 0.12482E-012-0.36615     
      20   0.0000      -28.368       0.0000      0.85005E-012 0.10993E-012-0.43231     
      21  0.99204E-013  5.8373     -0.28452E-011 0.21046E-012-0.77328E-013-0.54248     
      22 -0.50235E-013 -12.195      0.25707E-012 0.35055E-012-0.25978E-013-0.52354     
      23   0.0000      -45.858       0.0000      0.12156E-011-0.64649E-012 0.13044     
      24  0.10176E-011 -40.424     -0.21367E-011 0.58193E-012 0.31566E-012-0.27971     
      25  0.66137E-013 -46.603     -0.20106E-011 0.10248E-011-0.64262E-012-0.84305E-001
      26   0.0000      -3.6965       0.0000     -0.61467E-012 0.14266E-012 0.65663     
      27 -0.25703E-012 -37.962     -0.24411E-011-0.28393E-012-0.39309E-012 0.33957     
      28  0.18802E-011 -23.494      0.29800E-011 0.96478E-013 0.24764E-012 0.52050     
      29   0.0000       71.264       0.0000     -0.63796E-012 0.75453E-013 0.78267     
      30  0.11932E-011  19.776     -0.54396E-011-0.20580E-012-0.12726E-012 0.74062     
      31 -0.75865E-012  45.213     -0.29954E-011-0.14844E-011-0.10285E-012 0.77680     

 MAXIMUM ABSOLUTE VALUES
 NODE          0           29            0            0            0           29
 VALUE    0.0000       71.264       0.0000       0.0000       0.0000      0.78267     

 *** ANSYS - ENGINEERING ANALYSIS SYSTEM  RELEASE 2019 R3          19.5     ***
 DISTRIBUTED ANSYS Academic Research                           

 00208316  VERSION=WINDOWS x64   15:20:36  MAY 27, 2020 CP=      2.281

 unsaved_project--Modal (A5)                                                   


 
  ***** POST1 NODAL DEGREE OF FREEDOM LISTING *****                            
 
  LOAD STEP=     1  SUBSTEP=     5                                             
   FREQ=    461.74      LOAD CASE=   0                                         
 
  THE FOLLOWING DEGREE OF FREEDOM RESULTS ARE IN THE GLOBAL COORDINATE SYSTEM  
 
    NODE       UX           UY           UZ           ROTX         ROTY         ROTZ  
       1   0.0000       0.0000       0.0000       0.0000       0.0000       0.0000     
       2   0.0000       38.455       0.0000     -0.47972E-012-0.35966E-012 0.44941     
       3  0.37692E-011  6.7962     -0.13663E-011-0.58681E-012-0.39389E-012 0.36054     
       4  0.38585E-011  21.943     -0.14956E-010-0.77110E-012 0.46457E-012 0.50333     
       5   0.0000       46.994       0.0000     -0.17645E-011-0.16815E-012-0.35375     
       6 -0.15894E-011  50.433      0.57094E-011 0.16970E-012-0.46635E-012 0.24315     
       7 -0.25271E-011  53.826     -0.13543E-011-0.95002E-012 0.41204E-012-0.50124E-001
       8   0.0000      -15.178       0.0000     -0.42796E-011 0.25900E-012-0.68124     
       9 -0.90042E-014  30.863     -0.37835E-011-0.18366E-011 0.19614E-013-0.59361     
      10  0.29965E-012  8.5948     -0.10932E-012-0.10019E-011-0.14770E-012-0.71245     
      11   0.0000      -49.657       0.0000      0.98127E-012-0.35665E-012 0.11070     
      12 -0.79707E-012 -35.412     -0.76963E-011-0.24945E-011-0.75345E-014-0.50485     
      13  0.61974E-012 -47.787     -0.15373E-010-0.73914E-012 0.64038E-013-0.22048     
      14   0.0000      0.14939       0.0000      0.95336E-012-0.22267E-012 0.70915     
      15 -0.12549E-011 -40.648      0.65821E-011 0.12471E-011-0.36969E-012 0.41700     
      16 -0.87298E-012 -22.742     -0.57578E-011 0.21964E-011 0.24162E-012 0.63203     
      17   0.0000       49.953       0.0000     -0.18768E-011-0.18600E-012 0.11165     
      18 -0.41961E-011  23.036     -0.32526E-011-0.33706E-012-0.22368E-013 0.63177     
      19 -0.43982E-011  40.934      0.48075E-011-0.12207E-011-0.10592E-012 0.41692     
      20   0.0000       16.054       0.0000     -0.76847E-012-0.34505E-012-0.66735     
      21  0.11633E-011  48.148      0.10514E-010-0.25688E-011-0.51678E-012-0.21720     
      22  0.12594E-011  35.944     -0.28345E-012-0.18357E-011 0.10020E-011-0.49748     
      23   0.0000      -42.824       0.0000     -0.24270E-011-0.36217E-012-0.29143     
      24  0.83415E-012 -7.1039     -0.43997E-011-0.90712E-012-0.28384E-012-0.68858     
      25  0.53108E-012 -28.346      0.17493E-011-0.23862E-011 0.27069E-012-0.55458     
      26   0.0000      -20.938       0.0000     -0.95205E-012 0.61584E-012 0.69689     
      27  0.23296E-011 -47.031      0.43651E-011-0.78690E-012 0.52172E-012 0.48522E-001
      28  0.36081E-011 -39.488      0.68623E-011 0.15486E-011-0.45289E-012 0.39918     
      29   0.0000       71.196       0.0000      0.19280E-011-0.14607E-011  1.0046     
      30  0.28343E-011  6.0189     -0.10259E-010 0.86319E-012 0.20391E-012 0.89719     
      31  0.17395E-011  37.811     -0.29926E-010 0.11428E-011 0.20421E-012 0.98904     

 MAXIMUM ABSOLUTE VALUES
 NODE          0           29            0            0            0           29
 VALUE    0.0000       71.196       0.0000       0.0000       0.0000       1.0046     

 *** ANSYS - ENGINEERING ANALYSIS SYSTEM  RELEASE 2019 R3          19.5     ***
 DISTRIBUTED ANSYS Academic Research                           

 00208316  VERSION=WINDOWS x64   15:20:36  MAY 27, 2020 CP=      2.281

 unsaved_project--Modal (A5)                                                   


 
  ***** POST1 NODAL DEGREE OF FREEDOM LISTING *****                            
 
  LOAD STEP=     1  SUBSTEP=     6                                             
   FREQ=    688.63      LOAD CASE=   0                                         
 
  THE FOLLOWING DEGREE OF FREEDOM RESULTS ARE IN THE GLOBAL COORDINATE SYSTEM  
 
    NODE       UX           UY           UZ           ROTX         ROTY         ROTZ  
       1   0.0000       0.0000       0.0000       0.0000       0.0000       0.0000     
       2   0.0000      -47.281       0.0000      0.49980E-011 0.16718E-011-0.39468     
       3  0.17484E-012 -9.7609      0.18794E-010 0.49233E-011-0.30950E-011-0.49994     
       4 -0.61551E-012 -29.568      0.15523E-010 0.36054E-011 0.47247E-012-0.61012     
       5   0.0000      -23.843       0.0000      0.11398E-010-0.56468E-012 0.79149     
       6  0.59491E-011 -53.942      0.75582E-011 0.87677E-011-0.15251E-011 0.20704E-001
       7 -0.54629E-012 -45.574     -0.53703E-011 0.36885E-011 0.18913E-013 0.47039     
       8   0.0000       47.798       0.0000      0.44455E-011 0.17100E-011 0.26769     
       9 -0.28619E-011  4.8237      0.83526E-011 0.48446E-011-0.22295E-011 0.87039     
      10  0.85237E-011  31.511      0.41011E-010 0.26866E-010-0.14205E-011 0.67596     
      11   0.0000       7.6973       0.0000      0.71442E-011 0.18677E-011-0.85347     
      12 -0.76916E-011  48.536      0.19318E-010 0.18180E-010-0.29167E-012-0.22456     
      13  0.99918E-011  33.547      0.35067E-010 0.10115E-010 0.66637E-012-0.64308     
      14   0.0000      -50.414       0.0000      0.72315E-011-0.12026E-011 0.24584E-002
      15  0.10125E-011 -20.658      0.17794E-010 0.31258E-011-0.16522E-011-0.78820     
      16  0.45547E-011 -42.364     -0.10313E-011 0.12494E-010-0.13131E-011-0.46850     
      17   0.0000       8.0253       0.0000      0.18754E-010 0.27788E-012 0.85408     
      18  0.14680E-011 -42.206      0.30635E-010 0.16179E-010-0.50977E-012 0.47277     
      19  0.21678E-011 -20.383      0.21916E-010 0.13030E-010-0.10436E-012 0.79080     
      20   0.0000       48.126       0.0000      0.21865E-010-0.17678E-011-0.26484     
      21 -0.35460E-011  33.869     -0.24359E-010 0.14966E-010-0.69530E-012 0.64237     
      22  0.98559E-013  48.834     -0.50733E-011 0.18435E-010 0.24681E-011 0.22426     
      23   0.0000      -21.795       0.0000      0.23586E-010-0.15740E-011-0.74997     
      24  0.41442E-011  32.034     -0.32887E-010 0.22394E-010 0.33649E-012-0.66620     
      25 -0.26301E-011  5.8508      0.10353E-010 0.20703E-010-0.22711E-011-0.84859     
      26   0.0000      -34.410       0.0000      0.46665E-011 0.91647E-012 0.61859     
      27 -0.12303E-010 -41.660     -0.41573E-010 0.14264E-010 0.12892E-011-0.39648     
      28  0.86070E-011 -46.757      0.15300E-010 0.28892E-010-0.11494E-011 0.10798     
      29   0.0000       71.116       0.0000      0.17972E-010-0.94966E-013  1.2255     
      30  0.84291E-011 -6.7708      0.28064E-010 0.19248E-010-0.24321E-011  1.0024     
      31 -0.10526E-010  30.492     -0.35202E-010 0.68842E-011 0.66078E-012  1.1918     

 MAXIMUM ABSOLUTE VALUES
 NODE          0           29            0            0            0           29
 VALUE    0.0000       71.116       0.0000       0.0000       0.0000       1.2255     

 *** ANSYS - ENGINEERING ANALYSIS SYSTEM  RELEASE 2019 R3          19.5     ***
 DISTRIBUTED ANSYS Academic Research                           

 00208316  VERSION=WINDOWS x64   15:20:36  MAY 27, 2020 CP=      2.281

 unsaved_project--Modal (A5)                                                   


 
  ***** POST1 NODAL DEGREE OF FREEDOM LISTING *****                            
 
  LOAD STEP=     1  SUBSTEP=     7                                             
   FREQ=    723.96      LOAD CASE=   0                                         
 
  THE FOLLOWING DEGREE OF FREEDOM RESULTS ARE IN THE GLOBAL COORDINATE SYSTEM  
 
    NODE       UX           UY           UZ           ROTX         ROTY         ROTZ  
       1   0.0000       0.0000       0.0000       0.0000       0.0000       0.0000     
       2   0.0000      0.97317E-010  0.0000       1.9341     -0.17183E-012-0.28397E-012
       3  0.80182E-012 0.20397E-010 0.17545E-011 0.64708     -0.23635E-012 0.12912E-011
       4 -0.12696E-011 0.63245E-010 0.17504E-011  1.2924      0.64529E-012 0.13636E-011
       5   0.0000      0.36126E-010  0.0000       3.8207      0.25195E-013-0.11797E-011
       6  0.22087E-012 0.99556E-010-0.44258E-011  2.5706      0.49426E-012 0.33306E-013
       7  0.17231E-011 0.76255E-010 0.19210E-011  3.2000      0.25549E-012-0.79183E-012
       8   0.0000     -0.86041E-010  0.0000       5.6131      0.28351E-012 0.16375E-012
       9 -0.32862E-011-0.79101E-011-0.25773E-011  4.4308     -0.10517E-012-0.14037E-011
      10 -0.39647E-012-0.54466E-010 0.75975E-012  5.0289     -0.24206E-012-0.91544E-012
      11   0.0000      0.18421E-012  0.0000       7.2673      0.23513E-012 0.12500E-011
      12 -0.13879E-011-0.92884E-010 0.14565E-012  6.1820      0.32331E-012 0.25523E-012
      13 -0.12076E-011-0.59254E-010 0.40544E-011  6.7339      0.50110E-012 0.10612E-011
      14   0.0000      0.87928E-010  0.0000       8.7426      0.38454E-012-0.17016E-012
      15  0.30769E-011 0.57085E-010-0.31759E-012  7.7809      0.73070E-012 0.14746E-011
      16  0.88341E-012 0.89472E-010-0.13888E-011  8.2731      0.27407E-012 0.29080E-012
      17   0.0000     -0.28371E-010  0.0000       10.003      0.16782E-011-0.14710E-011
      18  0.10425E-011 0.58649E-010 0.10425E-011  9.1882     -0.52321E-012 0.15868E-013
      19  0.37071E-011 0.15982E-010-0.39068E-011  9.6086      0.17953E-012-0.17497E-011
      20   0.0000     -0.71719E-010  0.0000       11.016      0.16499E-012-0.28576E-012
      21  0.23195E-011-0.57701E-010 0.53177E-011  10.369     -0.19374E-012-0.10472E-011
      22  0.10227E-011-0.72918E-010-0.37251E-011  10.707      0.27363E-012-0.49708E-012
      23   0.0000      0.35023E-010  0.0000       11.759     -0.10649E-011 0.18218E-011
      24 -0.96930E-012-0.50494E-010 0.65844E-011  11.295      0.26578E-012 0.12805E-011
      25 -0.25004E-011-0.12250E-010 0.39081E-011  11.543     -0.80746E-012 0.19557E-011
      26   0.0000      0.57750E-010  0.0000       12.212      0.12006E-012-0.73440E-012
      27 -0.11345E-011 0.74749E-010-0.35830E-011  11.943     -0.58953E-012 0.36437E-012
      28  0.17186E-011 0.79603E-010 0.55892E-013  12.094      0.20978E-012-0.10439E-011
      29   0.0000     -0.69798E-010  0.0000       12.364      0.59173E-013-0.20448E-011
      30  0.30433E-011 0.19756E-010-0.23518E-011  12.296     -0.21315E-012-0.11237E-011
      31  0.96079E-012-0.26656E-010 0.34633E-011  12.347      0.30242E-012-0.10953E-011

 MAXIMUM ABSOLUTE VALUES
 NODE          0            0            0           29            0            0
 VALUE    0.0000       0.0000       0.0000       12.364       0.0000       0.0000     

 *** ANSYS - ENGINEERING ANALYSIS SYSTEM  RELEASE 2019 R3          19.5     ***
 DISTRIBUTED ANSYS Academic Research                           

 00208316  VERSION=WINDOWS x64   15:20:36  MAY 27, 2020 CP=      2.281

 unsaved_project--Modal (A5)                                                   


 
  ***** POST1 NODAL DEGREE OF FREEDOM LISTING *****                            
 
  LOAD STEP=     1  SUBSTEP=     8                                             
   FREQ=    960.00      LOAD CASE=   0                                         
 
  THE FOLLOWING DEGREE OF FREEDOM RESULTS ARE IN THE GLOBAL COORDINATE SYSTEM  
 
    NODE       UX           UY           UZ           ROTX         ROTY         ROTZ  
       1   0.0000       0.0000       0.0000       0.0000       0.0000       0.0000     
       2   0.0000       52.695       0.0000     -0.28154E-011 0.75730E-012 0.21293     
       3 -0.29558E-011  13.081     -0.76405E-011-0.53128E-011 0.45845E-011 0.64445     
       4  0.72635E-012  36.892     -0.44814E-011-0.96213E-011-0.63881E-011 0.66256     
       5   0.0000      -7.5544       0.0000      0.10624E-010 0.23826E-012 -1.0174     
       6 -0.50663E-011  49.313      0.19966E-010-0.74936E-011 0.29929E-011-0.41939     
       7 -0.70181E-011  26.148      0.30022E-010-0.41510E-011-0.44571E-011-0.90960     
       8   0.0000      -40.546       0.0000     -0.11298E-010-0.84308E-012 0.60099     
       9 -0.12139E-010 -37.327      0.43391E-010-0.17234E-010-0.17447E-013-0.68362     
      10  0.14043E-011 -50.186     -0.10204E-009-0.76944E-011-0.13367E-011-0.51224E-001
      11   0.0000       45.017       0.0000      0.80569E-011-0.96816E-013 0.45817     
      12 -0.39110E-012 -12.771     -0.91661E-010 0.98520E-011 0.59027E-011 0.98399     
      13  0.14555E-010  20.730     -0.39130E-010 0.14546E-011-0.48987E-011 0.92793     
      14   0.0000     -0.17837       0.0000      0.15684E-011 0.78453E-012 -1.0183     
      15 -0.11329E-010  49.263     -0.45330E-011 0.11559E-010 0.34726E-011-0.21586     
      16 -0.24461E-011  31.572      0.62839E-011 0.15777E-010-0.53800E-011-0.79384     
      17   0.0000      -44.831       0.0000     -0.36816E-011-0.32207E-011 0.46513     
      18  0.19047E-011 -31.847     -0.74812E-010 0.11032E-010 0.15161E-011-0.78915     
      19 -0.20276E-011 -49.327     -0.50684E-010-0.88638E-011-0.36917E-011-0.20850     
      20   0.0000       40.921       0.0000     -0.28519E-010 0.33009E-012 0.59839     
      21 -0.66767E-011 -20.357     -0.14320E-010-0.77189E-011 0.32832E-011 0.93177     
      22  0.39216E-011  13.204      0.98957E-010-0.12765E-010-0.31160E-011 0.98379     
      23   0.0000       8.4248       0.0000     -0.28480E-011-0.10462E-011-0.99340     
      24 -0.25297E-011  50.486      0.51322E-010-0.31263E-010 0.21742E-011-0.52019E-001
      25 -0.10108E-010  37.710      0.11363E-011-0.19038E-010-0.31571E-011-0.67626     
      26   0.0000      -43.261       0.0000     -0.81102E-012-0.21875E-011 0.41095     
      27 -0.29723E-011 -24.048      0.32769E-010-0.25515E-010-0.35276E-011-0.85649     
      28  0.16434E-010 -44.700      0.11398E-010-0.69138E-011 0.59461E-011-0.31535     
      29   0.0000       71.028       0.0000      0.86579E-011 0.92552E-011  1.4452     
      30  0.70396E-011 -18.266     -0.39132E-010 0.13552E-010-0.14364E-011  1.0421     
      31 -0.92720E-011  23.289      0.53984E-010-0.58158E-011-0.61318E-011  1.3817     

 MAXIMUM ABSOLUTE VALUES
 NODE          0           29           10            0            0           29
 VALUE    0.0000       71.028     -0.10204E-009  0.0000       0.0000       1.4452     

 *** ANSYS - ENGINEERING ANALYSIS SYSTEM  RELEASE 2019 R3          19.5     ***
 DISTRIBUTED ANSYS Academic Research                           

 00208316  VERSION=WINDOWS x64   15:20:36  MAY 27, 2020 CP=      2.281

 unsaved_project--Modal (A5)                                                   


 
  ***** POST1 NODAL DEGREE OF FREEDOM LISTING *****                            
 
  LOAD STEP=     1  SUBSTEP=     9                                             
   FREQ=    1275.5      LOAD CASE=   0                                         
 
  THE FOLLOWING DEGREE OF FREEDOM RESULTS ARE IN THE GLOBAL COORDINATE SYSTEM  
 
    NODE       UX           UY           UZ           ROTX         ROTY         ROTZ  
       1   0.0000       0.0000       0.0000       0.0000       0.0000       0.0000     
       2   0.0000      -53.814       0.0000      0.30044E-010-0.99921E-011 0.91007E-001
       3 -0.66907E-011 -16.676     -0.40023E-010 0.84796E-012-0.15047E-012-0.78686     
       4  0.46730E-011 -43.396      0.18971E-010 0.17521E-010 0.10903E-010-0.64419     
       5   0.0000       35.570       0.0000     -0.81055E-011 0.18928E-011 0.82949     
       6 -0.15145E-010 -36.912     -0.97124E-010 0.33865E-011 0.32610E-011 0.87192     
       7  0.22758E-010-0.32515      0.19069E-010 0.10087E-010 0.34718E-011  1.1879     
       8   0.0000     -0.36674       0.0000      0.36568E-010 0.28819E-011 -1.1701     
       9  0.14782E-010  50.239     -0.42659E-010 0.20901E-010-0.54327E-011-0.48917E-002
      10 -0.92141E-011  35.314      0.58989E-010-0.15052E-010 0.14138E-011-0.83200     
      11   0.0000      -35.432       0.0000     -0.90061E-011-0.55990E-011 0.83271     
      12  0.28737E-010 -35.873      0.14642E-009-0.28327E-010-0.70948E-011-0.82232     
      13 -0.30783E-010 -50.399      0.36227E-010-0.30720E-011 0.10104E-010 0.72048E-002
      14   0.0000       50.392       0.0000     -0.10856E-010-0.30245E-011-0.55702E-002
      15  0.46694E-011 0.27038     -0.30559E-010 0.69273E-011 0.24869E-011  1.1709     
      16  0.41843E-011  35.813      0.48014E-010-0.21889E-010 0.13565E-010 0.82373     
      17   0.0000      -35.766       0.0000     -0.18858E-010 0.88541E-011-0.82467     
      18  0.11868E-010  35.474      0.42723E-010-0.89561E-011-0.67461E-011-0.83159     
      19  0.11822E-011-0.20758      0.82661E-010-0.39727E-011 0.32101E-011 -1.1708     
      20   0.0000      0.17834       0.0000      0.28397E-010 0.37818E-011  1.1716     
      21  0.32781E-011 -50.386      0.53054E-010-0.31070E-011-0.26981E-011 0.42866E-002
      22  0.85176E-011 -35.504     -0.89652E-010 0.11142E-010 0.91629E-012 0.83093     
      23   0.0000       35.895       0.0000      0.32392E-011-0.32656E-011-0.82169     
      24  0.43431E-011  35.795     -0.37441E-010 0.23784E-010-0.50056E-011 0.82744     
      25  0.19642E-010  50.545     -0.23070E-010 0.13288E-010 0.59140E-011 0.94507E-003
      26   0.0000      -46.970       0.0000      0.22397E-010-0.16929E-011 0.82260E-001
      27  0.30394E-010 0.63921     -0.44667E-011 0.28314E-010 0.46709E-012 -1.1538     
      28 -0.32255E-010 -34.108     -0.61004E-010-0.27889E-010-0.30508E-011-0.78958     
      29   0.0000       70.935       0.0000     -0.16782E-010-0.10827E-010  1.6636     
      30 -0.31235E-010 -28.157      0.22371E-010-0.34632E-010 0.33679E-011  1.0049     
      31  0.30985E-010  16.238      0.29242E-010 0.69086E-011 0.57714E-011  1.5549     

 MAXIMUM ABSOLUTE VALUES
 NODE          0           29           12            0            0           29
 VALUE    0.0000       70.935      0.14642E-009  0.0000       0.0000       1.6636     

 *** ANSYS - ENGINEERING ANALYSIS SYSTEM  RELEASE 2019 R3          19.5     ***
 DISTRIBUTED ANSYS Academic Research                           

 00208316  VERSION=WINDOWS x64   15:20:36  MAY 27, 2020 CP=      2.281

 unsaved_project--Modal (A5)                                                   


 
  ***** POST1 NODAL DEGREE OF FREEDOM LISTING *****                            
 
  LOAD STEP=     1  SUBSTEP=    10                                             
   FREQ=    1634.6      LOAD CASE=   0                                         
 
  THE FOLLOWING DEGREE OF FREEDOM RESULTS ARE IN THE GLOBAL COORDINATE SYSTEM  
 
    NODE       UX           UY           UZ           ROTX         ROTY         ROTZ  
       1   0.0000       0.0000       0.0000       0.0000       0.0000       0.0000     
       2   0.0000       50.271       0.0000      0.45159E-010-0.18093E-011-0.48991     
       3  0.63866E-012  20.465      0.27160E-010-0.86555E-012 0.96893E-011 0.92035     
       4 -0.31261E-011  48.635     -0.14160E-009 0.18463E-010-0.14082E-010 0.54443     
       5   0.0000      -49.664       0.0000      0.48428E-010-0.25281E-011-0.19900     
       6  0.20022E-010  18.610      0.33716E-009 0.28660E-010 0.13046E-011 -1.2673     
       7 -0.64023E-011 -25.200      0.21068E-009 0.71689E-011-0.30798E-011 -1.1499     
       8   0.0000       41.030       0.0000     -0.62408E-010-0.39425E-011 0.76764     
       9 -0.13436E-010 -37.058      0.40901E-009-0.15007E-010-0.46507E-011 0.89172     
      10  0.23805E-010  3.1156      0.10839E-009-0.17572E-010 0.76910E-011  1.3188     
      11   0.0000      -23.203       0.0000     -0.28302E-010 0.22746E-011 -1.1736     
      12  0.99047E-011  48.572      0.13029E-009-0.19373E-010 0.71134E-012-0.35265     
      13  0.65767E-010  20.143      0.23011E-009-0.60757E-010 0.12598E-011 -1.2119     
      14   0.0000      0.30754       0.0000     -0.44508E-011 0.14333E-010  1.3221     
      15  0.95554E-011 -49.360      0.35283E-009-0.17886E-010-0.12043E-010-0.26596     
      16  0.19733E-010 -38.954      0.50065E-009 0.14544E-010-0.49351E-011 0.83867     
      17   0.0000       22.657       0.0000     -0.13593E-010-0.24317E-011 -1.1809     
      18  0.37317E-010  39.341     -0.18051E-009 0.95883E-011-0.28333E-011 0.82614     
      19  0.41611E-010  49.234      0.23872E-009-0.30003E-010-0.91578E-011-0.28172     
      20   0.0000      -40.644       0.0000      0.61495E-011 0.77578E-011 0.78141     
      21  0.32103E-011 -20.701      0.18417E-009-0.12970E-010-0.25181E-011 -1.2053     
      22  0.12465E-010 -48.721      0.49860E-009 0.86863E-011-0.18789E-012-0.33679     
      23   0.0000       49.930       0.0000      0.63260E-010 0.42861E-011-0.20525     
      24  0.41471E-010 -2.4396      0.12093E-010 0.26186E-010 0.39439E-011  1.3213     
      25  0.19228E-010  37.620     -0.12535E-010 0.46525E-010-0.10171E-010 0.88379     
      26   0.0000      -45.426       0.0000     -0.69147E-011-0.19259E-010-0.33918     
      27 -0.14968E-010  25.537     -0.29485E-009-0.18131E-010 0.71265E-011 -1.1347     
      28  0.54310E-010 -17.093     -0.52353E-009 0.11128E-010 0.43221E-011 -1.2053     
      29   0.0000       70.839       0.0000      0.31113E-010 0.15221E-010  1.8810     
      30  0.22219E-010 -36.168      0.14060E-009 0.27750E-010-0.34477E-012 0.88416     
      31 -0.40716E-010  9.3741      0.34527E-010-0.18105E-010-0.64458E-011  1.7077     

 MAXIMUM ABSOLUTE VALUES
 NODE          0           29           16            0            0           29
 VALUE    0.0000       70.839      0.50065E-009  0.0000       0.0000       1.8810     

 *** ANSYS - ENGINEERING ANALYSIS SYSTEM  RELEASE 2019 R3          19.5     ***
 DISTRIBUTED ANSYS Academic Research                           

 00208316  VERSION=WINDOWS x64   15:20:36  MAY 27, 2020 CP=      2.281

 unsaved_project--Modal (A5)                                                   


 
  ***** POST1 NODAL DEGREE OF FREEDOM LISTING *****                            
 
  LOAD STEP=     1  SUBSTEP=    11                                             
   FREQ=    2037.0      LOAD CASE=   0                                         
 
  THE FOLLOWING DEGREE OF FREEDOM RESULTS ARE IN THE GLOBAL COORDINATE SYSTEM  
 
    NODE       UX           UY           UZ           ROTX         ROTY         ROTZ  
       1   0.0000       0.0000       0.0000       0.0000       0.0000       0.0000     
       2   0.0000      -42.226       0.0000     -0.93475E-010-0.73306E-011 0.93714     
       3  0.20402E-010 -24.371     -0.23054E-009 0.42254E-010 0.13644E-010 -1.0385     
       4  0.11111E-010 -52.247     -0.30012E-009-0.49750E-011 0.32662E-011-0.35924     
       5   0.0000       44.527       0.0000     -0.29282E-010-0.16770E-010-0.68103     
       6  0.29356E-010  2.5957      0.20252E-009 0.40419E-010-0.17215E-010  1.4898     
       7  0.60037E-010  43.696      0.52799E-010 0.12165E-009 0.25395E-010 0.72781     
       8   0.0000      -47.769       0.0000      0.79590E-011-0.91178E-011 0.46976     
       9  0.10481E-009  4.6519      0.36404E-009 0.67102E-010 0.25876E-010 -1.4644     
      10 -0.20745E-010 -39.528      0.68625E-010-0.12067E-010 0.14867E-010-0.91321     
      11   0.0000       49.703       0.0000     -0.33800E-011-0.12870E-011-0.24343     
      12 -0.36120E-010 -12.555     -0.84614E-010-0.59448E-010 0.52379E-012  1.4256     
      13 -0.15012E-009  34.078      0.91740E-010 0.56114E-010-0.24521E-010  1.0844     
      14   0.0000      -50.396       0.0000      0.10639E-009 0.37824E-010 0.11160E-001
      15  0.67646E-010  20.103      0.28572E-009 0.21724E-010 0.50636E-011 -1.3498     
      16  0.21327E-010 -27.789      0.38121E-009 0.77097E-011-0.21537E-011 -1.2280     
      17   0.0000       49.824       0.0000      0.25374E-010 0.11111E-010 0.22141     
      18 -0.47124E-010 -27.148     -0.39309E-010-0.10111E-010-0.88199E-011  1.2401     
      19 -0.40007E-010  20.801     -0.16242E-010 0.77577E-010 0.58010E-011  1.3407     
      20   0.0000      -47.997       0.0000     -0.16854E-010-0.72674E-011-0.44825     
      21  0.29476E-010  33.513      0.95772E-011 0.48489E-010-0.13985E-010 -1.0993     
      22 -0.29072E-010 -13.290     -0.91725E-011-0.29586E-010-0.50243E-011 -1.4198     
      23   0.0000       45.074       0.0000     -0.12415E-009 0.26821E-010 0.66712     
      24 -0.20663E-010 -39.021      0.47182E-009-0.24759E-010 0.30566E-011 0.93144     
      25  0.51243E-010  5.4860      0.22424E-009-0.11708E-010 0.25272E-010  1.4644     
      26   0.0000      -38.962       0.0000     -0.21547E-010-0.22289E-010-0.80731     
      27  0.16779E-010  43.841     -0.33446E-009 0.13739E-010 0.22194E-010-0.73143     
      28 -0.16197E-009  3.2284     -0.80385E-009-0.51230E-010-0.16416E-010 -1.4491     
      29   0.0000       70.746       0.0000     -0.67438E-010 0.58009E-011  2.0972     
      30 -0.50542E-010 -42.080      0.34837E-009-0.11090E-010 0.11972E-010 0.67803     
      31  0.95168E-010  2.7349      0.58421E-009 0.10079E-009 0.10132E-010  1.8367     

 MAXIMUM ABSOLUTE VALUES
 NODE          9           29           28            7            0           29
 VALUE   0.10481E-009  70.746     -0.80385E-009 0.12165E-009  0.0000       2.0972     

 *** ANSYS - ENGINEERING ANALYSIS SYSTEM  RELEASE 2019 R3          19.5     ***
 DISTRIBUTED ANSYS Academic Research                           

 00208316  VERSION=WINDOWS x64   15:20:36  MAY 27, 2020 CP=      2.281

 unsaved_project--Modal (A5)                                                   


 
  ***** POST1 NODAL DEGREE OF FREEDOM LISTING *****                            
 
  LOAD STEP=     1  SUBSTEP=    12                                             
   FREQ=    2171.9      LOAD CASE=   0                                         
 
  THE FOLLOWING DEGREE OF FREEDOM RESULTS ARE IN THE GLOBAL COORDINATE SYSTEM  
 
    NODE       UX           UY           UZ           ROTX         ROTY         ROTZ  
       1   0.0000       0.0000       0.0000       0.0000       0.0000       0.0000     
       2   0.0000      0.83208E-010  0.0000      -5.6131     -0.55363E-011-0.61692E-011
       3 -0.23888E-011 0.12688E-009-0.75715E-010 -1.9341      0.12602E-011 0.17675E-011
       4  0.53679E-011 0.20453E-009-0.11757E-009 -3.8207     -0.15004E-011 0.13191E-011
       5   0.0000     -0.39881E-010  0.0000      -10.003      0.54428E-011 0.90566E-011
       6  0.34593E-010-0.16429E-009 0.12194E-009 -7.2673     -0.20803E-011-0.44859E-011
       7  0.30819E-010-0.20200E-009 0.12544E-009 -8.7426      0.19138E-012 0.18462E-011
       8   0.0000     -0.51411E-010  0.0000      -12.212      0.29053E-011-0.11406E-010
       9 -0.66721E-010 0.27297E-009-0.11911E-009 -11.016     -0.32979E-011 0.51627E-011
      10 -0.59838E-010 0.20772E-009-0.38676E-010 -11.759     -0.36738E-011-0.67934E-011
      11   0.0000      0.15292E-009  0.0000      -11.759      0.15784E-012 0.11906E-010
      12 -0.34195E-010-0.34592E-009-0.89775E-010 -12.364      0.48483E-012-0.40649E-011
      13 -0.25418E-010-0.22877E-009-0.93242E-010 -12.212     -0.82196E-012 0.71503E-011
      14   0.0000     -0.14582E-009  0.0000      -8.7426     -0.15334E-010-0.86651E-011
      15  0.50718E-010 0.36795E-009-0.16035E-009 -11.016      0.22847E-011 0.14110E-011
      16  0.63381E-010 0.22357E-009-0.25528E-009 -10.003     -0.91114E-012-0.84075E-011
      17   0.0000      0.80892E-010  0.0000      -3.8207      0.62653E-011 0.10240E-010
      18  0.71735E-010-0.35607E-009 0.29686E-009 -7.2673     -0.42259E-011-0.22484E-011
      19  0.62137E-010-0.25168E-009 0.30430E-009 -5.6131      0.47858E-011 0.10257E-010
      20   0.0000     -0.55323E-010  0.0000       1.9341     -0.10136E-010-0.64672E-011
      21  0.36919E-010 0.32322E-009-0.36703E-009 -1.9341      0.78520E-011 0.67178E-011
      22  0.49621E-010 0.27709E-009-0.35587E-009 0.19472E-008-0.55919E-011-0.81833E-011
      23   0.0000      0.96118E-010  0.0000       7.2673      0.58072E-011 0.80803E-011
      24 -0.78815E-010-0.29774E-009 0.14025E-009  3.8207     -0.50789E-011-0.50100E-011
      25 -0.82732E-010-0.19535E-009 0.17335E-009  5.6131      0.35934E-011 0.48219E-011
      26   0.0000     -0.18572E-009  0.0000       11.016     -0.69710E-011-0.63674E-011
      27  0.17367E-010 0.34591E-009-0.17269E-009  8.7426      0.38168E-011 0.45327E-011
      28  0.27687E-010 0.13489E-009-0.13510E-009  10.003     -0.32231E-011-0.70140E-011
      29   0.0000      0.39893E-009  0.0000       12.364      0.11375E-010 0.12033E-010
      30  0.75149E-010-0.33956E-009 0.30287E-009  11.759     -0.85122E-011 0.26169E-014
      31  0.66699E-010 0.18131E-010 0.29631E-009  12.212      0.47794E-011 0.14618E-010

 MAXIMUM ABSOLUTE VALUES
 NODE          0           29           21           12            0            0
 VALUE    0.0000      0.39893E-009-0.36703E-009 -12.364       0.0000       0.0000     

 *** ANSYS - ENGINEERING ANALYSIS SYSTEM  RELEASE 2019 R3          19.5     ***
 DISTRIBUTED ANSYS Academic Research                           

 00208316  VERSION=WINDOWS x64   15:20:36  MAY 27, 2020 CP=      2.281

 unsaved_project--Modal (A5)                                                   


 
  ***** POST1 NODAL DEGREE OF FREEDOM LISTING *****                            
 
  LOAD STEP=     1  SUBSTEP=    13                                             
   FREQ=    2272.2      LOAD CASE=   0                                         
 
  THE FOLLOWING DEGREE OF FREEDOM RESULTS ARE IN THE GLOBAL COORDINATE SYSTEM  
 
    NODE       UX           UY           UZ           ROTX         ROTY         ROTZ  
       1   0.0000       0.0000       0.0000       0.0000       0.0000       0.0000     
       2   0.0000      0.11959E-009  0.0000      0.39302E-010-0.34220      0.10744E-010
       3  0.45370E-010 0.17639E-009 -3.5672      0.39861E-010 0.13763      0.22317E-010
       4  0.62630E-011 0.21082E-009 -6.1232      0.74453E-010-0.34467E-001-0.13203E-010
       5   0.0000      0.20135E-010  0.0000      0.26406E-010 0.67597      0.34170E-011
       6  0.20767E-010 0.98192E-010  13.170      0.70069E-010-0.30634     -0.17897E-010
       7 -0.71516E-011-0.24714E-009  15.663      0.49076E-010 0.20571     -0.48956E-011
       8   0.0000     -0.11734E-009  0.0000      0.39858E-010-0.99309      0.12410E-010
       9  0.25290E-010-0.11044E-009 -22.448      0.88902E-010 0.46750     -0.68198E-011
      10 -0.31882E-010 0.10424E-009 -24.817      0.30287E-010-0.37190     -0.26778E-011
      11   0.0000     -0.36761E-009  0.0000      0.22970E-010  1.2858      0.64468E-011
      12 -0.19592E-010 0.44273E-009  31.173      0.52442E-010-0.61716      0.29559E-011
      13 -0.28967E-010-0.89931E-010  33.360      0.54798E-010 0.52892     -0.20720E-011
      14   0.0000      0.32826E-009  0.0000      0.67421E-010 -1.5468     -0.18289E-010
      15  0.52919E-010-0.16265E-009 -39.131      0.92233E-011 0.75161     -0.48364E-012
      16 -0.85360E-012 0.18510E-009 -41.081      0.10691E-013-0.67292      0.94166E-011
      17   0.0000     -0.12503E-009  0.0000      0.14799E-010  1.7697      0.16025E-010
      18 -0.24483E-010 0.10835E-009  46.126     -0.22574E-010-0.86756     -0.20177E-010
      19  0.17679E-010-0.31827E-009  47.791      0.29104E-010 0.80036     -0.19613E-010
      20   0.0000      0.27043E-009  0.0000      0.39653E-010 -1.9491     -0.98494E-011
      21  0.65974E-010-0.45923E-010 -51.984      0.43847E-010 0.96215     -0.94905E-011
      22 -0.40584E-011 0.36040E-010 -53.324      0.20351E-010-0.90808      0.17023E-010
      23   0.0000      0.14837E-009  0.0000     -0.34769E-011  2.0804      0.40415E-011
      24  0.33606E-011 0.12106E-009  56.563      0.60636E-010 -1.0330     -0.56637E-011
      25  0.33539E-010-0.33531E-009  57.544      0.90729E-010 0.99345      0.10488E-011
      26   0.0000      0.49748E-010  0.0000     -0.94321E-010 -2.1605     -0.11261E-010
      27  0.31034E-010-0.33433E-009 -59.749     -0.26939E-010  1.0785     -0.10244E-010
      28 -0.11968E-010 0.84768E-010 -60.347     -0.69678E-010 -1.0543      0.10245E-011
      29   0.0000      0.27386E-009  0.0000     -0.15181E-009  2.1875      0.24305E-010
      30  0.21902E-010 0.35922E-009  61.463     -0.96932E-010 -1.0974      0.10101E-010
      31  0.40685E-010-0.35134E-009  61.664     -0.83924E-010  1.0893     -0.14894E-010

 MAXIMUM ABSOLUTE VALUES
 NODE          0           11           31           29           29            0
 VALUE    0.0000     -0.36761E-009  61.664     -0.15181E-009  2.1875       0.0000     

 *** ANSYS - ENGINEERING ANALYSIS SYSTEM  RELEASE 2019 R3          19.5     ***
 DISTRIBUTED ANSYS Academic Research                           

 00208316  VERSION=WINDOWS x64   15:20:36  MAY 27, 2020 CP=      2.281

 unsaved_project--Modal (A5)                                                   


 
  ***** POST1 NODAL DEGREE OF FREEDOM LISTING *****                            
 
  LOAD STEP=     1  SUBSTEP=    14                                             
   FREQ=    2391.9      LOAD CASE=   0                                         
 
  THE FOLLOWING DEGREE OF FREEDOM RESULTS ARE IN THE GLOBAL COORDINATE SYSTEM  
 
    NODE       UX           UY           UZ           ROTX         ROTY         ROTZ  
       1   0.0000       0.0000       0.0000       0.0000       0.0000       0.0000     
       2   0.0000     -0.15023E-010  0.0000     -0.11458E-010-0.98680      0.18804E-010
       3 -0.40406E-011-0.25241E-009 -10.697     -0.61400E-010 0.40924      0.91021E-011
       4 -0.73101E-010-0.40009E-009 -18.099     -0.18174E-010-0.11086      0.55135E-011
       5   0.0000      0.47070E-010  0.0000      0.29142E-011  1.7585      0.14480E-010
       6  0.10346E-010 0.16767E-009  37.161     -0.41623E-010-0.84013     -0.40579E-011
       7 -0.89010E-010 0.15756E-009  42.950     -0.11569E-009 0.60679     -0.14014E-010
       8   0.0000     -0.61262E-009  0.0000      0.13686E-010 -2.1469      0.16269E-010
       9 -0.55992E-010 0.14235E-009 -55.525      0.38523E-010  1.0879     -0.31003E-010
      10 -0.43280E-010-0.23365E-009 -58.438     -0.39852E-011-0.97045     -0.11352E-010
      11   0.0000      0.40737E-009  0.0000      0.51483E-010  2.0672      0.45735E-012
      12 -0.16727E-011 0.19576E-009  61.784      0.10348E-009 -1.0985      0.22355E-010
      13  0.99521E-010 0.57774E-009  61.187      0.70504E-011  1.1226      0.80268E-011
      14   0.0000     -0.18978E-009  0.0000      0.15666E-010 -1.5370      0.60161E-011
      15 -0.15018E-010-0.35195E-009 -54.576     -0.14283E-011 0.86964     -0.45243E-010
      16 -0.75454E-010-0.63823E-009 -50.599     -0.57117E-011 -1.0300      0.55767E-011
      17   0.0000      0.21131E-009  0.0000      0.16953E-010 0.67168     -0.63796E-011
      18 -0.15532E-011 0.45266E-009  35.471     -0.35976E-010-0.45122      0.29486E-011
      19  0.78936E-010 0.32119E-009  28.980      0.68016E-011 0.71287     -0.17189E-010
      20   0.0000      0.20223E-009  0.0000     -0.42586E-010 0.34003     -0.22743E-011
      21  0.38919E-010-0.52190E-009 -8.6336     -0.10397E-010-0.65557E-001 0.23716E-011
      22 -0.46445E-010-0.19592E-009 -1.0445     -0.23521E-010-0.24036      0.16333E-010
      23   0.0000      0.44090E-009  0.0000      0.53501E-010 -1.2776     -0.19607E-011
      24 -0.15891E-010-0.66076E-010 -20.086     -0.15330E-010 0.56805     -0.13167E-010
      25 -0.30692E-010-0.22468E-009 -27.119      0.20682E-010-0.28454      0.66795E-012
      26   0.0000     -0.26881E-009  0.0000      0.27718E-010  1.9367     -0.11101E-010
      27 -0.20574E-010 0.70352E-010  44.427      0.19114E-010-0.94671      0.14811E-010
      28  0.81509E-010-0.64009E-010  49.371      0.79328E-010 0.74742     -0.15236E-010
      29   0.0000      0.14727E-009  0.0000     -0.47067E-010 -2.1736     -0.12504E-010
      30  0.26811E-010 0.10629E-010 -59.083     -0.10888E-010  1.1190      0.19279E-010
      31 -0.89239E-010-0.68323E-010 -60.860     -0.95603E-010 -1.0474      0.54625E-011

 MAXIMUM ABSOLUTE VALUES
 NODE          0            8           12            7           29            0
 VALUE    0.0000     -0.61262E-009  61.784     -0.11569E-009 -2.1736       0.0000     

 *** ANSYS - ENGINEERING ANALYSIS SYSTEM  RELEASE 2019 R3          19.5     ***
 DISTRIBUTED ANSYS Academic Research                           

 00208316  VERSION=WINDOWS x64   15:20:36  MAY 27, 2020 CP=      2.281

 unsaved_project--Modal (A5)                                                   


 
  ***** POST1 NODAL DEGREE OF FREEDOM LISTING *****                            
 
  LOAD STEP=     1  SUBSTEP=    15                                             
   FREQ=    2482.5      LOAD CASE=   0                                         
 
  THE FOLLOWING DEGREE OF FREEDOM RESULTS ARE IN THE GLOBAL COORDINATE SYSTEM  
 
    NODE       UX           UY           UZ           ROTX         ROTY         ROTZ  
       1   0.0000       0.0000       0.0000       0.0000       0.0000       0.0000     
       2   0.0000       30.334       0.0000      0.29635E-010-0.28507E-011 -1.3724     
       3 -0.12565E-011  28.318     -0.62319E-010 0.92215E-011 0.17083E-011  1.1356     
       4 -0.34743E-011  53.965     -0.90219E-010 0.19819E-010-0.33169E-012 0.91397E-001
       5   0.0000      -22.174       0.0000      0.61041E-010 0.42818E-011  1.4527     
       6 -0.95525E-011 -23.129      0.71111E-010 0.41197E-010-0.62880E-012 -1.4477     
       7 -0.85022E-011 -50.250      0.86615E-010 0.50294E-010 0.11321E-011 0.19384E-001
       8   0.0000       14.965       0.0000      0.72967E-010-0.61997E-011 -1.5476     
       9  0.92824E-011  30.221     -0.13891E-009 0.64101E-010 0.24835E-011  1.2970     
      10  0.14059E-010  49.690     -0.14176E-009 0.69008E-010-0.21001E-011-0.27518     
      11   0.0000      -7.3378       0.0000      0.68885E-010 0.89221E-011  1.6033     
      12  0.78795E-011 -36.081      0.22280E-009 0.73038E-010-0.43848E-011 -1.1319     
      13  0.10912E-010 -47.763      0.24840E-009 0.71175E-010 0.53122E-011 0.51864     
      14   0.0000     -0.46401       0.0000      0.45439E-010-0.62598E-011 -1.6205     
      15 -0.13073E-010  41.093     -0.22854E-009 0.64201E-010 0.42801E-011 0.93885     
      16 -0.16593E-010  44.694     -0.21393E-009 0.55194E-010-0.34952E-011-0.74985     
      17   0.0000       8.2548       0.0000      0.15526E-010 0.64257E-011  1.5987     
      18 -0.14967E-010 -45.115      0.15516E-009 0.37255E-010-0.26375E-011-0.72327     
      19 -0.10140E-010 -40.548      0.12691E-009 0.26913E-010 0.30702E-011 0.96300     
      20   0.0000      -15.845       0.0000     -0.23017E-010-0.12328E-011 -1.5384     
      21 -0.85901E-011  48.053     -0.91048E-010 0.19219E-011 0.12619E-011 0.49031     
      22 -0.11617E-010  35.428     -0.87287E-010-0.11519E-010-0.16869E-011 -1.1530     
      23   0.0000       23.112       0.0000     -0.50877E-010-0.61368E-011  1.4429     
      24  0.17771E-010 -49.827      0.54585E-012-0.34147E-010 0.16000E-011-0.24532     
      25  0.14379E-010 -29.436     -0.46129E-010-0.43869E-010-0.63197E-012  1.3158     
      26   0.0000      -28.339       0.0000     -0.57114E-010 0.11647E-010 -1.2633     
      27 -0.64616E-011  50.574      0.19635E-009-0.56993E-010-0.60346E-011 0.14592E-003
      28 -0.16909E-012  23.240      0.25504E-009-0.58219E-010 0.36344E-011 -1.4302     
      29   0.0000       70.659       0.0000     -0.59996E-010-0.14524E-010  2.3127     
      30 -0.14823E-010 -45.739     -0.38273E-009-0.59025E-010 0.71655E-011 0.39056     
      31 -0.19310E-010 -3.6431     -0.40998E-009-0.61091E-010-0.62615E-011  1.9383     

 MAXIMUM ABSOLUTE VALUES
 NODE          0           29           30            0            0           29
 VALUE    0.0000       70.659     -0.38273E-009  0.0000       0.0000       2.3127     

 *** ANSYS - ENGINEERING ANALYSIS SYSTEM  RELEASE 2019 R3          19.5     ***
 DISTRIBUTED ANSYS Academic Research                           

 00208316  VERSION=WINDOWS x64   15:20:36  MAY 27, 2020 CP=      2.297

 unsaved_project--Modal (A5)                                                   


 
  ***** POST1 NODAL DEGREE OF FREEDOM LISTING *****                            
 
  LOAD STEP=     1  SUBSTEP=    16                                             
   FREQ=    2614.7      LOAD CASE=   0                                         
 
  THE FOLLOWING DEGREE OF FREEDOM RESULTS ARE IN THE GLOBAL COORDINATE SYSTEM  
 
    NODE       UX           UY           UZ           ROTX         ROTY         ROTZ  
       1   0.0000       0.0000       0.0000       0.0000       0.0000       0.0000     
       2   0.0000      0.79748E-010  0.0000      0.34699E-010 -1.5158     -0.25284E-010
       3  0.77355E-011-0.93836E-010 -17.814     -0.42665E-010 0.67011     -0.11767E-010
       4 -0.19795E-010-0.56272E-010 -29.282     -0.44536E-010-0.20902      0.34715E-010
       5   0.0000     -0.37279E-009  0.0000      0.10400E-009  2.1436      0.16388E-010
       6  0.38695E-010-0.37127E-009  54.475      0.17686E-010 -1.1567      0.24769E-010
       7 -0.62118E-010 0.43968E-009  59.225     -0.14602E-010 0.96571     -0.95582E-011
       8   0.0000      0.88791E-009  0.0000     -0.45621E-010 -1.5158     -0.15731E-010
       9 -0.99516E-010 0.71474E-010 -59.225     -0.68114E-010 0.96571     -0.33792E-010
      10  0.61874E-010-0.67845E-010 -54.475     -0.28713E-010 -1.1567      0.42033E-010
      11   0.0000     -0.33980E-009  0.0000      0.30523E-010 0.91958E-011 0.14675E-010
      12  0.70528E-010-0.64643E-009  29.282      0.14794E-011-0.20902     -0.21599E-010
      13  0.25075E-009-0.25161E-009  17.814     -0.15480E-009 0.67011     -0.17987E-010
      14   0.0000     -0.16417E-009  0.0000     -0.50564E-010  1.5158      0.85006E-012
      15 -0.34302E-010 0.38508E-009  17.814      0.11398E-010-0.67011      0.11734E-010
      16 -0.16133E-010 0.61007E-009  29.282      0.73771E-010 0.20902     -0.21834E-010
      17   0.0000      0.12535E-009  0.0000      0.70027E-010 -2.1436     -0.16666E-010
      18  0.69769E-010-0.59393E-009 -54.475      0.59019E-010  1.1567      0.59280E-011
      19  0.11194E-009 0.56172E-010 -59.225      0.23905E-010-0.96571      0.36719E-010
      20   0.0000     -0.68085E-010  0.0000      0.19773E-010  1.5158      0.24652E-010
      21 -0.42445E-010 0.13713E-009  59.225     -0.36018E-010-0.96571      0.49140E-010
      22 -0.27918E-010-0.51354E-010  54.475      0.52570E-010  1.1567     -0.39188E-010
      23   0.0000     -0.88066E-009  0.0000     -0.27939E-010-0.13965E-010-0.15432E-010
      24  0.12413E-010 0.47344E-010 -29.282      0.29985E-011 0.20902      0.22917E-012
      25 -0.87358E-010 0.53490E-009 -17.814     -0.15446E-009-0.67011     -0.43077E-010
      26   0.0000      0.74406E-009  0.0000     -0.27740E-010 -1.5158      0.15458E-010
      27 -0.32122E-010 0.30117E-009 -17.814     -0.12102E-009 0.67011      0.59319E-010
      28  0.24240E-009-0.45152E-009 -29.282     -0.29565E-010-0.20902      0.11240E-010
      29   0.0000     -0.10833E-008  0.0000      0.31843E-009  2.1436     -0.81846E-010
      30  0.94958E-010-0.28481E-009  54.475      0.51286E-010 -1.1567     -0.19506E-010
      31 -0.14097E-009 0.33079E-009  59.225      0.37560E-010 0.96571      0.21599E-010

 MAXIMUM ABSOLUTE VALUES
 NODE         13           29            7           29            5            0
 VALUE   0.25075E-009-0.10833E-008  59.225      0.31843E-009  2.1436       0.0000     

 *** ANSYS - ENGINEERING ANALYSIS SYSTEM  RELEASE 2019 R3          19.5     ***
 DISTRIBUTED ANSYS Academic Research                           

 00208316  VERSION=WINDOWS x64   15:20:36  MAY 27, 2020 CP=      2.297

 unsaved_project--Modal (A5)                                                   


 
  ***** POST1 NODAL DEGREE OF FREEDOM LISTING *****                            
 
  LOAD STEP=     1  SUBSTEP=    17                                             
   FREQ=    2915.8      LOAD CASE=   0                                         
 
  THE FOLLOWING DEGREE OF FREEDOM RESULTS ARE IN THE GLOBAL COORDINATE SYSTEM  
 
    NODE       UX           UY           UZ           ROTX         ROTY         ROTZ  
       1   0.0000       0.0000       0.0000       0.0000       0.0000       0.0000     
       2   0.0000     -0.11763E-008  0.0000      0.11483E-009 -1.8645      0.12080E-009
       3 -0.55619E-011-0.15985E-008 -24.917      0.11680E-009 0.91374     -0.93563E-010
       4  0.56027E-010-0.34623E-008 -39.203      0.10899E-009-0.34144      0.27287E-011
       5   0.0000     -0.74092E-009  0.0000      0.20042E-010  1.6929     -0.10136E-009
       6 -0.15246E-010 0.27807E-008  61.827      0.95204E-010 -1.1711      0.71790E-010
       7  0.23324E-010 0.24717E-008  60.513      0.10104E-009  1.2238     -0.60018E-010
       8   0.0000      0.20241E-008  0.0000      0.78763E-011 0.32735      0.10053E-009
       9 -0.98850E-011-0.27817E-008 -31.221     -0.69703E-010 0.14960     -0.20341E-012
      10  0.61667E-010-0.17960E-008 -15.741      0.41057E-010-0.76971      0.73932E-010
      11   0.0000     -0.27605E-008  0.0000     -0.22428E-010 -1.9902     -0.39705E-010
      12 -0.10744E-010 0.30817E-008 -33.479     -0.17520E-010  1.0353     -0.50180E-010
      13 -0.17094E-010-0.32179E-010 -46.220     -0.95529E-011-0.52488     -0.12641E-009
      14   0.0000      0.31142E-008  0.0000     -0.96033E-010  1.4797      0.40971E-010
      15 -0.24483E-010-0.19668E-008  61.619     -0.37931E-010 -1.0896      0.78485E-010
      16  0.54234E-010 0.82430E-009  57.708     -0.62851E-011  1.2463      0.89786E-010
      17   0.0000     -0.29422E-008  0.0000     -0.55952E-010 0.64665      0.68722E-010
      18  0.55227E-011 0.14723E-008 -22.470     -0.96557E-011-0.45928E-001-0.98869E-010
      19 -0.66676E-010-0.25540E-008 -6.1776     -0.93928E-010-0.60673     -0.75625E-010
      20   0.0000      0.19933E-008  0.0000      0.88537E-010 -2.0668     -0.59781E-010
      21 -0.44255E-010 0.52475E-009 -41.217     -0.24438E-010  1.1313      0.10293E-009
      22  0.58088E-010 0.27699E-008 -52.099      0.65787E-010-0.69539      0.22432E-010
      23   0.0000     -0.69614E-009  0.0000      0.39707E-011  1.2300      0.13121E-009
      24  0.46476E-010-0.13132E-008  59.894      0.10566E-009-0.98127     -0.10899E-009
      25  0.11647E-010-0.33446E-008  53.482      0.24136E-010  1.2381      0.15810E-011
      26   0.0000     -0.64198E-009  0.0000     -0.10188E-009 0.95001     -0.81507E-010
      27 -0.26035E-010 0.29261E-008 -13.166     -0.80103E-010-0.24032      0.47591E-010
      28  0.13823E-010 0.23131E-008  3.5378     -0.12926E-009-0.42880     -0.45757E-010
      29   0.0000      0.48696E-008  0.0000      0.14863E-009 -2.0926      0.20069E-009
      30  0.12504E-010-0.29867E-008 -47.940      0.21118E-010  1.1995     -0.30392E-010
      31  0.50964E-011-0.80455E-009 -56.695      0.80652E-010-0.84878      0.13604E-009

 MAXIMUM ABSOLUTE VALUES
 NODE          0           29            6            2           29            2
 VALUE    0.0000      0.48696E-008  61.827      0.11483E-009 -2.0926      0.12080E-009

 *** ANSYS - ENGINEERING ANALYSIS SYSTEM  RELEASE 2019 R3          19.5     ***
 DISTRIBUTED ANSYS Academic Research                           

 00208316  VERSION=WINDOWS x64   15:20:36  MAY 27, 2020 CP=      2.297

 unsaved_project--Modal (A5)                                                   


 
  ***** POST1 NODAL DEGREE OF FREEDOM LISTING *****                            
 
  LOAD STEP=     1  SUBSTEP=    18                                             
   FREQ=    2970.6      LOAD CASE=   0                                         
 
  THE FOLLOWING DEGREE OF FREEDOM RESULTS ARE IN THE GLOBAL COORDINATE SYSTEM  
 
    NODE       UX           UY           UZ           ROTX         ROTY         ROTZ  
       1   0.0000       0.0000       0.0000       0.0000       0.0000       0.0000     
       2   0.0000      -15.667       0.0000     -0.37121E-010 0.11174E-009  1.7293     
       3 -0.50413E-010 -32.231      0.14227E-008 0.28607E-010-0.66972E-010 -1.2063     
       4  0.87695E-010 -53.625      0.32334E-008-0.38770E-010 0.30936E-010 0.24957     
       5   0.0000      -8.7883       0.0000     -0.60191E-010-0.10044E-009 -1.7402     
       6 -0.46888E-010  39.482     -0.47484E-008-0.57213E-010 0.83330E-010  1.0981     
       7  0.10672E-009  43.127     -0.35733E-008 0.28776E-010-0.99191E-010-0.90815     
       8   0.0000       30.271       0.0000     -0.18640E-010 0.12989E-010  1.4144     
       9  0.17756E-010 -49.522      0.15308E-008-0.83816E-010-0.24503E-010-0.33834     
      10  0.72259E-010 -26.798      0.27333E-009 0.83615E-010-0.20195E-010  1.4982     
      11   0.0000      -45.245       0.0000     -0.40517E-010 0.10356E-009-0.78198     
      12 -0.72227E-010  48.532      0.19863E-008-0.67301E-010-0.30435E-010-0.48241     
      13 -0.19804E-009  4.5786      0.28163E-008 0.81212E-010 0.32222E-011 -1.7608     
      14   0.0000       50.444       0.0000     -0.59100E-010-0.91918E-010-0.19376E-001
      15 -0.29543E-010 -37.068     -0.38446E-008-0.18175E-010 0.12505E-009  1.1993     
      16  0.11489E-009  18.627     -0.32346E-008 0.13404E-010-0.98927E-010  1.6432     
      17   0.0000      -44.745       0.0000     -0.58809E-010-0.43505E-010 0.81655     
      18 -0.47295E-011  17.595      0.97527E-009 0.82995E-010-0.66447E-011 -1.6571     
      19 -0.17700E-009 -37.809     -0.31964E-009-0.75857E-010 0.10314E-010 -1.1705     
      20   0.0000       29.381       0.0000     -0.73454E-010 0.11039E-009 -1.4373     
      21 -0.88016E-010  5.6787      0.24223E-008-0.75163E-011-0.64878E-010  1.7569     
      22  0.11417E-009  48.823      0.31220E-008-0.25465E-010 0.55708E-010 0.44504     
      23   0.0000      -7.6377       0.0000      0.60406E-010-0.11216E-009  1.7487     
      24  0.27110E-010 -27.723     -0.35601E-008-0.63731E-010 0.52988E-010 -1.4770     
      25  0.16281E-010 -49.280     -0.34555E-008 0.30577E-011-0.75892E-010 0.37696     
      26   0.0000      -14.680       0.0000      0.49871E-010-0.63207E-010 -1.6429     
      27 -0.57749E-010  43.880      0.88379E-009 0.10591E-009 0.22425E-011 0.88182     
      28 -0.14439E-009  39.422      0.36814E-009 0.66423E-010 0.33742E-010 -1.1054     
      29   0.0000       70.582       0.0000     -0.17295E-009 0.14156E-009  2.5277     
      30 -0.40154E-010 -47.069      0.28351E-008 0.39494E-010-0.77348E-010 0.31599E-001
      31  0.89520E-010 -9.7237      0.38177E-008-0.53008E-010 0.30767E-010  2.0095     

 MAXIMUM ABSOLUTE VALUES
 NODE          7           29            6           27            2           29
 VALUE   0.10672E-009  70.582     -0.47484E-008 0.10591E-009 0.11174E-009  2.5277     

 *** ANSYS - ENGINEERING ANALYSIS SYSTEM  RELEASE 2019 R3          19.5     ***
 DISTRIBUTED ANSYS Academic Research                           

 00208316  VERSION=WINDOWS x64   15:20:36  MAY 27, 2020 CP=      2.297

 unsaved_project--Modal (A5)                                                   


 
  ***** POST1 NODAL DEGREE OF FREEDOM LISTING *****                            
 
  LOAD STEP=     1  SUBSTEP=    19                                             
   FREQ=    3270.5      LOAD CASE=   0                                         
 
  THE FOLLOWING DEGREE OF FREEDOM RESULTS ARE IN THE GLOBAL COORDINATE SYSTEM  
 
    NODE       UX           UY           UZ           ROTX         ROTY         ROTZ  
       1   0.0000       0.0000       0.0000       0.0000       0.0000       0.0000     
       2   0.0000     -0.51678E-010  0.0000     -0.21375E-009 -1.9869      0.11518E-012
       3 -0.36426E-010 0.11050E-009 -32.006     -0.64740E-010  1.1347      0.10638E-011
       4 -0.39506E-010 0.11000E-010 -47.490     -0.14288E-009-0.51745     -0.34087E-011
       5   0.0000      0.13849E-010  0.0000     -0.30990E-009 0.62164      0.43077E-011
       6  0.40022E-010 0.15230E-010  57.504     -0.26050E-009-0.87245      0.11070E-011
       7  0.36833E-010-0.22742E-010  46.864     -0.29376E-009  1.2966     -0.85630E-012
       8   0.0000     -0.34788E-010  0.0000     -0.19839E-009  1.7924      0.67683E-011
       9 -0.57097E-010 0.72335E-010  14.014     -0.30653E-009-0.86170     -0.41361E-011
      10 -0.45520E-010-0.10705E-009  32.828     -0.25942E-009 0.11180     -0.24032E-011
      11   0.0000     -0.13599E-010  0.0000      0.30320E-010 -1.1824     -0.12549E-011
      12 -0.38471E-010 0.98679E-010 -61.888     -0.13078E-009  1.1420      0.93346E-012
      13 -0.30532E-010 0.57290E-010 -57.135     -0.57607E-010 -1.3315     -0.44532E-011
      14   0.0000      0.10405E-009  0.0000      0.24125E-009 -1.4225      0.13021E-010
      15  0.54143E-010-0.70430E-010  5.3485      0.10673E-009 0.50439     -0.43260E-011
      16  0.52425E-010-0.17986E-009 -14.952      0.18469E-009 0.30480      0.53234E-012
      17   0.0000     -0.22668E-009  0.0000      0.33071E-009  1.6275     -0.19410E-011
      18  0.82861E-010 0.26692E-009  60.215      0.29347E-009 -1.2999     -0.22172E-011
      19  0.88419E-010-0.13273E-010  61.813      0.32076E-009  1.2362     -0.95890E-011
      20   0.0000      0.38755E-009  0.0000      0.23734E-009 0.91328      0.21009E-011
      21  0.30055E-010-0.17068E-009 -24.188      0.31446E-009-0.97705E-001 0.47450E-011
      22  0.28734E-010 0.58023E-010 -4.3870      0.28891E-009-0.69156      0.97664E-011
      23   0.0000     -0.28967E-009  0.0000     -0.20265E-010 -1.9132      0.15679E-010
      24 -0.49969E-010 0.92750E-010 -52.647      0.16924E-009  1.3304     -0.16481E-010
      25 -0.57433E-010-0.41782E-009 -60.440      0.71925E-010 -1.0198     -0.87928E-011
      26   0.0000      0.57593E-010  0.0000     -0.26562E-009-0.31470     -0.16182E-010
      27 -0.28656E-010 0.29651E-009  40.660     -0.11912E-009-0.31854      0.13454E-010
      28 -0.11877E-010 0.39262E-009  23.297     -0.20497E-009  1.0106     -0.42225E-011
      29   0.0000      0.78634E-009  0.0000     -0.31579E-009  2.0117      0.30745E-010
      30  0.34841E-010-0.46077E-009  39.926     -0.29932E-009 -1.2308     -0.61963E-011
      31  0.21902E-010-0.19730E-009  53.151     -0.31977E-009 0.70361      0.22518E-010

 MAXIMUM ABSOLUTE VALUES
 NODE          0           29           12           17           29            0
 VALUE    0.0000      0.78634E-009 -61.888      0.33071E-009  2.0117       0.0000     

 *** ANSYS - ENGINEERING ANALYSIS SYSTEM  RELEASE 2019 R3          19.5     ***
 DISTRIBUTED ANSYS Academic Research                           

 00208316  VERSION=WINDOWS x64   15:20:36  MAY 27, 2020 CP=      2.297

 unsaved_project--Modal (A5)                                                   


 
  ***** POST1 NODAL DEGREE OF FREEDOM LISTING *****                            
 
  LOAD STEP=     1  SUBSTEP=    20                                             
   FREQ=    3501.3      LOAD CASE=   0                                         
 
  THE FOLLOWING DEGREE OF FREEDOM RESULTS ARE IN THE GLOBAL COORDINATE SYSTEM  
 
    NODE       UX           UY           UZ           ROTX         ROTY         ROTZ  
       1   0.0000       0.0000       0.0000       0.0000       0.0000       0.0000     
       2   0.0000     -0.39854       0.0000     -0.88071E-010 0.87158E-010 -1.9446     
       3 -0.49035E-010  36.040      0.13275E-008 0.24160E-009-0.13293E-009  1.2462     
       4  0.20898E-010  51.167      0.31941E-008 0.10559E-010 0.23249E-010-0.64791     
       5   0.0000       36.443       0.0000      0.43891E-010 0.76401E-011  1.3254     
       6 -0.56039E-012 -48.838     -0.15806E-008 0.11222E-009 0.36722E-010-0.46308     
       7 -0.12660E-009 -24.253     -0.42558E-009 0.22380E-009-0.67579E-010  1.6759     
       8   0.0000      -50.486       0.0000      0.76634E-010-0.80970E-010 0.34236E-001
       9 -0.24580E-009  43.232     -0.17055E-008-0.20488E-009 0.52323E-010-0.98987     
      10  0.16663E-009 -13.979     -0.31494E-008 0.19837E-009-0.74681E-010 -1.8400     
      11   0.0000       35.152       0.0000     -0.17146E-010-0.53310E-010 -1.3746     
      12 -0.20362E-009 -12.236      0.28243E-009 0.17099E-010 0.97282E-010  1.8578     
      13  0.22675E-010  44.133     -0.14272E-008-0.12279E-009 0.72586E-011 0.93042     
      14   0.0000      0.64802       0.0000     -0.26946E-009-0.22085E-010  1.9147     
      15 -0.83386E-010 -25.879      0.13748E-008-0.34001E-009-0.19071E-010 -1.6442     
      16  0.85955E-010 -48.591      0.64665E-009-0.38811E-010 0.66759E-011 0.52084     
      17   0.0000      -36.071       0.0000      0.12996E-009-0.50529E-010 -1.3400     
      18 -0.32395E-010  48.927     -0.15553E-008 0.77005E-010 0.38305E-010 0.47338     
      19 -0.80355E-010  24.758     -0.17126E-008-0.57393E-010-0.33616E-012 -1.6689     
      20   0.0000       50.493       0.0000     -0.20674E-011-0.18752E-010-0.14882E-001
      21 -0.28573E-010 -43.489     -0.26451E-008 0.63945E-010 0.65232E-010 0.97307     
      22  0.16178E-009  13.489     -0.21823E-008 0.24260E-009-0.26421E-010  1.8453     
      23   0.0000      -35.500       0.0000      0.22196E-009-0.97588E-010  1.3617     
      24  0.18354E-009  12.732     -0.33851E-009 0.20960E-009-0.36969E-010 -1.8529     
      25 -0.65083E-010 -43.878     -0.13451E-008-0.62814E-010-0.20229E-010-0.94711     
      26   0.0000      0.62268       0.0000     -0.18704E-009-0.10877E-010 -1.8845     
      27 -0.32213E-009  25.499      0.11578E-008 0.14244E-009-0.28413E-010  1.6564     
      28  0.21258E-009  48.939      0.16198E-008-0.45262E-010 0.31088E-010-0.49371     
      29   0.0000       70.519       0.0000     -0.68150E-010 0.12254E-009  2.7427     
      30  0.17626E-009 -46.079      0.16032E-008-0.23667E-010-0.50460E-010-0.38358     
      31 -0.20647E-009 -15.472      0.16764E-008-0.28885E-009-0.52799E-011  2.0476     

 MAXIMUM ABSOLUTE VALUES
 NODE          9           29            4            3            3           29
 VALUE  -0.24580E-009  70.519      0.31941E-008 0.24160E-009-0.13293E-009  2.7427     

 *** ANSYS - ENGINEERING ANALYSIS SYSTEM  RELEASE 2019 R3          19.5     ***
 DISTRIBUTED ANSYS Academic Research                           

 00208316  VERSION=WINDOWS x64   15:20:36  MAY 27, 2020 CP=      2.297

 unsaved_project--Modal (A5)                                                   


 
  ***** POST1 NODAL DEGREE OF FREEDOM LISTING *****                            
 
  LOAD STEP=     1  SUBSTEP=    21                                             
   FREQ=    3619.8      LOAD CASE=   0                                         
 
  THE FOLLOWING DEGREE OF FREEDOM RESULTS ARE IN THE GLOBAL COORDINATE SYSTEM  
 
    NODE       UX           UY           UZ           ROTX         ROTY         ROTZ  
       1   0.0000       0.0000       0.0000       0.0000       0.0000       0.0000     
       2   0.0000     -0.59655E-010  0.0000       8.7427     -0.20164E-010-0.13194E-010
       3 -0.23361E-010 0.12393E-009-0.12457E-010  3.2000      0.53938E-011 0.64799E-011
       4 -0.42004E-010 0.12002E-009-0.20701E-009  6.1820      0.90484E-011-0.52678E-011
       5   0.0000      0.17986E-009  0.0000       12.364      0.24314E-010 0.68317E-011
       6 -0.69341E-010-0.16390E-009 0.88533E-009  10.708     -0.17539E-010 0.57958E-011
       7 -0.55078E-010 0.16512E-010 0.85531E-009  11.943      0.23055E-010 0.37073E-011
       8   0.0000     -0.94268E-010  0.0000       8.7427      0.17503E-010 0.97451E-011
       9  0.97359E-010 0.83892E-010-0.36100E-009  11.943     -0.93652E-012-0.12265E-010
      10  0.84410E-010-0.24831E-009-0.40844E-011  10.708     -0.54498E-011 0.23702E-011
      11   0.0000     -0.66662E-010  0.0000     -0.62164E-011-0.40402E-010-0.74344E-011
      12  0.68778E-010 0.15589E-009-0.11130E-008  6.1820      0.29107E-010 0.83966E-011
      13  0.63511E-010 0.15437E-009-0.12989E-008  3.2000     -0.16304E-010-0.57643E-011
      14   0.0000      0.14117E-009  0.0000      -8.7427     -0.74978E-011 0.20223E-011
      15 -0.95489E-010-0.14412E-009 0.85371E-009 -3.2000     -0.20024E-011-0.62303E-012
      16 -0.12921E-009-0.72772E-010 0.44251E-009 -6.1820      0.28660E-010 0.45634E-011
      17   0.0000     -0.10791E-009  0.0000      -12.364      0.81749E-010-0.50189E-011
      18 -0.10164E-009 0.12435E-009 0.12924E-008 -10.708     -0.42722E-010 0.96161E-012
      19 -0.70487E-010-0.70804E-010 0.16459E-008 -11.943      0.22772E-010-0.82645E-011
      20   0.0000      0.11432E-009  0.0000      -8.7427      0.96475E-011-0.56769E-011
      21 -0.63116E-010 0.89121E-011-0.17892E-008 -11.943      0.21248E-010-0.18108E-011
      22 -0.96327E-010 0.47270E-010-0.12701E-008 -10.708     -0.48548E-010-0.17711E-011
      23   0.0000     -0.62009E-010  0.0000     -0.17148E-010-0.89078E-010 0.62067E-011
      24  0.12390E-009-0.23413E-010-0.17662E-008 -6.1820      0.64553E-010 0.29770E-012
      25  0.12992E-009-0.10130E-009-0.23740E-008 -3.2000     -0.36410E-010 0.10092E-010
      26   0.0000      0.92905E-010  0.0000       8.7427     -0.69448E-011-0.39923E-012
      27 -0.33090E-010 0.72360E-010 0.20300E-008  3.2000     -0.24498E-010-0.60246E-011
      28 -0.49214E-010 0.12939E-010 0.12406E-008  6.1820      0.54229E-010-0.11725E-010
      29   0.0000      0.37567E-010  0.0000       12.364      0.86878E-010-0.67181E-011
      30 -0.14552E-009-0.25484E-010 0.17054E-008  10.708     -0.57072E-010-0.69441E-012
      31 -0.13635E-009-0.36017E-010 0.23586E-008  11.943      0.34114E-010 0.42765E-011

 MAXIMUM ABSOLUTE VALUES
 NODE         16           10           25            5            0            0
 VALUE  -0.12921E-009-0.24831E-009-0.23740E-008  12.364       0.0000       0.0000     

 *** ANSYS - ENGINEERING ANALYSIS SYSTEM  RELEASE 2019 R3          19.5     ***
 DISTRIBUTED ANSYS Academic Research                           

 00208316  VERSION=WINDOWS x64   15:20:36  MAY 27, 2020 CP=      2.297

 unsaved_project--Modal (A5)                                                   


 
  ***** POST1 NODAL DEGREE OF FREEDOM LISTING *****                            
 
  LOAD STEP=     1  SUBSTEP=    22                                             
   FREQ=    3655.8      LOAD CASE=   0                                         
 
  THE FOLLOWING DEGREE OF FREEDOM RESULTS ARE IN THE GLOBAL COORDINATE SYSTEM  
 
    NODE       UX           UY           UZ           ROTX         ROTY         ROTZ  
       1   0.0000       0.0000       0.0000       0.0000       0.0000       0.0000     
       2   0.0000      0.11729E-008  0.0000     -0.16087E-009  1.8631      0.54698E-010
       3 -0.15300E-010-0.20865E-008  39.079     -0.59299E-010 -1.3288     -0.61050E-011
       4 -0.19746E-009-0.19439E-008  53.904     -0.72666E-010 0.74146      0.45173E-010
       5   0.0000     -0.14544E-008  0.0000     -0.79229E-010 0.58292      0.56004E-010
       6 -0.10693E-009 0.13873E-008 -41.677     -0.11804E-009 0.32571     -0.97955E-011
       7 -0.12974E-009 0.15097E-009 -22.214     -0.11112E-009 -1.0969     -0.13511E-009
       8   0.0000      0.13434E-008  0.0000      0.36863E-010 -1.6808     -0.73791E-010
       9  0.33054E-010-0.44860E-009 -52.118      0.23805E-010  1.4308     -0.54851E-010
      10 -0.39089E-009 0.39791E-009 -60.854     -0.28957E-009 -1.0846      0.11285E-009
      11   0.0000     -0.71975E-009  0.0000     -0.22382E-009 -1.1088      0.71644E-010
      12  0.14961E-009-0.30963E-009  25.371     -0.40180E-010 0.12193      0.22904E-010
      13  0.85571E-010-0.70019E-009  3.1744     -0.18260E-009 0.75752      0.29381E-010
      14   0.0000      0.50199E-009  0.0000      0.18419E-009  1.3339     -0.74271E-010
      15  0.14117E-010 0.86849E-009  60.056     -0.14901E-010 -1.3926     -0.69220E-011
      16 -0.25565E-009 0.34827E-009  61.847     -0.23066E-009  1.3216     -0.10754E-010
      17   0.0000      0.86212E-009  0.0000      0.36187E-009  1.5261      0.15237E-011
      18  0.48550E-010-0.10474E-008 -6.5817     -0.86865E-011-0.55763     -0.10335E-009
      19  0.25600E-009-0.10243E-008  16.176      0.46254E-009-0.34402      0.33922E-010
      20   0.0000     -0.12797E-008  0.0000      0.41634E-009-0.85639     -0.55555E-010
      21  0.25422E-009 0.16898E-008 -62.115      0.32317E-009  1.2181     -0.25755E-010
      22 -0.95805E-010-0.31456E-009 -56.786      0.18768E-009 -1.4293     -0.60458E-010
      23   0.0000      0.21303E-008  0.0000     -0.18274E-010 -1.7940     -0.67059E-010
      24 -0.10356E-009-0.22003E-008 -12.852      0.12629E-009 0.93875      0.78753E-010
      25  0.12248E-009 0.22563E-008 -33.942      0.19495E-009-0.10316      0.14133E-009
      26   0.0000     -0.68909E-010  0.0000     -0.15201E-009 0.29509      0.58352E-010
[...]
      14   0.0000      0.17327E-007  0.0000       8.7579      0.15554E-008-0.68096E-009
      15 -0.91242E-008 0.40358E-008-0.34436E-008 -12.233      0.81527E-010-0.31698E-008
      16  0.85175E-008-0.14636E-007 0.84404E-008 -3.8273     -0.22492E-008 0.20900E-008
      17   0.0000     -0.10049E-007  0.0000      -10.020     -0.32541E-008-0.45388E-008
      18 -0.30646E-008-0.15839E-007-0.98951E-009  11.779     -0.70316E-009-0.27559E-008
      19  0.19451E-008 0.18369E-007 0.97757E-008  1.9375      0.16232E-008 0.50567E-008
      20   0.0000     -0.47315E-007  0.0000       11.036      0.42079E-009 0.36433E-008
      21 -0.46390E-008-0.21037E-007 0.48690E-008 -11.036      0.24489E-008 0.31552E-008
      22  0.38720E-008 0.42696E-007-0.12810E-008 0.15402E-007-0.80423E-009-0.43278E-008
      23   0.0000      0.24003E-007  0.0000      -11.779     -0.31030E-009 0.27793E-008
      24  0.91408E-008 0.41477E-007 0.27156E-008  10.020      0.99853E-009-0.16464E-008
      25 -0.90605E-008-0.36028E-007-0.53032E-008 -1.9375      0.38384E-009-0.18226E-008
      26   0.0000      0.37769E-007  0.0000       12.233      0.52340E-009-0.99052E-009
      27 -0.16398E-007-0.19687E-008-0.19792E-008 -8.7579      0.16206E-008-0.31984E-008
      28  0.13328E-007-0.17489E-007-0.56016E-008  3.8273      0.12471E-008 0.79414E-009
      29   0.0000     -0.61767E-007  0.0000      -12.386      0.12683E-008-0.23765E-008
      30  0.10828E-007-0.68738E-007-0.70057E-008  7.2800     -0.21679E-009-0.16068E-008
      31 -0.96105E-008 0.63487E-007 0.36386E-008 -5.6229     -0.11252E-008 0.85338E-009

 MAXIMUM ABSOLUTE VALUES
 NODE         27           30            4           12           17           19
 VALUE  -0.16398E-007-0.68738E-007-0.17887E-007  12.386     -0.32541E-008 0.50567E-008

 *** ANSYS - ENGINEERING ANALYSIS SYSTEM  RELEASE 2019 R3          19.5     ***
 DISTRIBUTED ANSYS Academic Research                           

 00208316  VERSION=WINDOWS x64   15:20:36  MAY 27, 2020 CP=      2.359

 unsaved_project--Modal (A5)                                                   


 
  ***** POST1 NODAL DEGREE OF FREEDOM LISTING *****                            
 
  LOAD STEP=     1  SUBSTEP=    58                                             
   FREQ=    15716.      LOAD CASE=   0                                         
 
  THE FOLLOWING DEGREE OF FREEDOM RESULTS ARE IN THE GLOBAL COORDINATE SYSTEM  
 
    NODE       UX           UY           UZ           ROTX         ROTY         ROTZ  
       1   0.0000       0.0000       0.0000       0.0000       0.0000       0.0000     
       2   0.0000       50.314       0.0000      0.24413E-008-0.12386E-008  1.1237     
       3 -0.11158E-009  49.532      0.32608E-007-0.20652E-008 0.13021E-010 -2.2325     
       4 -0.16971E-009 -51.557     -0.26044E-007 0.18149E-009 0.17004E-008 0.41649     
       5   0.0000      -10.549       0.0000     -0.36443E-008 0.27068E-011 -4.2149     
       6 -0.58570E-009 -42.035      0.13001E-008 0.13647E-008 0.13211E-010 -2.5432     
       7  0.17853E-009  28.174     -0.86311E-008-0.25493E-008 0.37311E-009  3.6206     
       8   0.0000      -40.762       0.0000      0.33319E-008-0.13547E-009  2.6809     
       9 -0.83770E-010 -8.4835     -0.11910E-007-0.12498E-009-0.34776E-009  4.2466     
      10 -0.46755E-009  26.384      0.14061E-007 0.35448E-008-0.30167E-009 -3.7115     
      11   0.0000       47.364       0.0000      0.41910E-009-0.47069E-009  1.7936     
      12  0.60742E-009  49.699      0.20000E-007-0.12143E-008 0.34639E-009 -1.2925     
      13  0.33850E-009 -52.003     -0.14999E-007-0.37513E-008 0.52224E-009-0.26851     
      14   0.0000      -2.0157       0.0000     -0.40222E-008-0.41127E-009 -4.3009     
      15  0.82208E-010 -36.403      0.98398E-008 0.34103E-008-0.16420E-009 -3.0793     
      16 -0.43773E-009  20.583     -0.13815E-007-0.72220E-009 0.87420E-009  3.9540     
      17   0.0000      -45.544       0.0000      0.42311E-009 0.21821E-009  2.0908     
      18  0.47827E-009 -16.821     -0.19156E-008-0.27569E-009-0.32679E-009  4.0736     
      19  0.24866E-009  33.412     -0.49109E-008 0.40871E-008 0.36246E-009 -3.3026     
      20   0.0000       43.149       0.0000      0.56332E-008-0.39917E-009  2.4125     
      21  0.21696E-009  51.596     -0.48613E-008-0.39046E-008-0.73425E-009-0.59983     
      22  0.12447E-010 -50.760      0.21151E-008-0.33753E-009 0.57066E-009-0.97118     
      23   0.0000       6.5725       0.0000     -0.61712E-008-0.13778E-009 -4.2697     
      24 -0.21675E-009 -29.779     -0.11467E-008 0.33304E-008 0.20472E-009 -3.5319     
      25  0.31963E-009  12.433      0.16434E-008-0.44594E-008-0.19811E-009  4.1798     
      26   0.0000      -49.061       0.0000      0.11155E-008 0.37134E-009  1.4459     
      27  0.90024E-009 -24.700     -0.59657E-009 0.10986E-009 0.37975E-009  3.7897     
      28 -0.10553E-009  39.534      0.51762E-008 0.37073E-008-0.63158E-009 -2.8036     
      29   0.0000       72.704       0.0000      0.17055E-008-0.15565E-008  6.1705     
      30 -0.54456E-009  52.360      0.13803E-007-0.14872E-008-0.45634E-009 0.13416     
      31  0.26731E-009 -45.048     -0.99401E-008-0.27997E-010 0.12565E-008 -1.3642     

 MAXIMUM ABSOLUTE VALUES
 NODE         27           29            3           23            4           29
 VALUE   0.90024E-009  72.704      0.32608E-007-0.61712E-008 0.17004E-008  6.1705     

 *** ANSYS - ENGINEERING ANALYSIS SYSTEM  RELEASE 2019 R3          19.5     ***
 DISTRIBUTED ANSYS Academic Research                           

 00208316  VERSION=WINDOWS x64   15:20:36  MAY 27, 2020 CP=      2.359

 unsaved_project--Modal (A5)                                                   


 
  ***** POST1 NODAL DEGREE OF FREEDOM LISTING *****                            
 
  LOAD STEP=     1  SUBSTEP=    59                                             
   FREQ=    16674.      LOAD CASE=   0                                         
 
  THE FOLLOWING DEGREE OF FREEDOM RESULTS ARE IN THE GLOBAL COORDINATE SYSTEM  
 
    NODE       UX           UY           UZ           ROTX         ROTY         ROTZ  
       1   0.0000       0.0000       0.0000       0.0000       0.0000       0.0000     
       2   0.0000      0.33006E-007  0.0000       5.6268      0.40817E-009-0.15247E-008
       3 -0.12961E-008 0.28981E-007-0.55792E-008 -11.571     -0.43484E-009-0.30909E-008
       4  0.93426E-009-0.29559E-007 0.39859E-008 -8.2932      0.47937E-010 0.15313E-008
       5   0.0000      0.17064E-007  0.0000      -10.027      0.16212E-008 0.23873E-008
       6 -0.40508E-008-0.27814E-007 0.12524E-007  12.326     -0.54311E-009 0.16749E-008
       7  0.39145E-008 0.90001E-008-0.13807E-007  3.2078     -0.80083E-009-0.23170E-008
       8   0.0000     -0.25417E-007  0.0000       12.241      0.91280E-009 0.46763E-009
       9  0.27191E-009-0.30670E-007 0.49283E-008 -10.395     -0.14385E-009-0.86235E-009
      10 -0.13060E-008 0.30775E-007-0.33691E-008  2.5769     -0.10077E-008-0.25024E-009
      11   0.0000      0.14826E-007  0.0000      -11.787      0.16947E-008-0.69621E-009
      12  0.36780E-008 0.19388E-007 0.16588E-007  6.1970     -0.52011E-009-0.21594E-009
      13 -0.28088E-008-0.15472E-007-0.10788E-007 -7.7998     -0.15689E-008 0.49845E-009
      14   0.0000     -0.24674E-007  0.0000       8.7639      0.20689E-008-0.57619E-009
      15  0.15458E-008-0.14568E-007 0.26301E-007-0.64866     -0.51747E-009 0.48017E-009
      16 -0.16068E-008 0.17131E-007-0.30459E-007  11.323     -0.22312E-009-0.30958E-009
      17   0.0000      0.52436E-007  0.0000      -3.8300      0.91205E-009-0.55872E-009
      18  0.38722E-008 0.38318E-007-0.60506E-008 -5.0411     -0.19811E-008 0.23887E-009
      19 -0.30400E-008-0.51107E-007 0.22602E-008 -12.377     -0.14721E-009-0.74400E-009
      20   0.0000     -0.11997E-007  0.0000      -1.9389     -0.12097E-008-0.48448E-009
      21 -0.48490E-009-0.37340E-007 0.34871E-008  9.6320     -0.47076E-009 0.84941E-009
      22  0.11003E-008 0.20493E-007 0.44867E-008  10.734      0.66274E-010-0.47513E-009
      23   0.0000      0.52381E-008  0.0000       7.2850     -0.48250E-009 0.31178E-009
      24 -0.29310E-008 0.87817E-008 0.17374E-007 -12.123      0.12720E-008 0.79323E-009
      25  0.29464E-008-0.57443E-008-0.12523E-007 -6.7503     -0.11912E-009 0.72681E-010
      26   0.0000     -0.17038E-007  0.0000      -11.043     -0.12129E-008 0.14126E-009
      27  0.65880E-008-0.76079E-008-0.77276E-008  11.972      0.35705E-009-0.62921E-009
      28 -0.53777E-008 0.98838E-008 0.59217E-008  1.2955      0.25610E-009 0.21169E-009
      29   0.0000     -0.24993E-007  0.0000       12.394     -0.48625E-010-0.45685E-008
      30 -0.68824E-008 0.24215E-007-0.96109E-008 -9.2106      0.88263E-009-0.10204E-008
      31  0.64914E-008-0.12786E-007 0.89427E-008  4.4416     -0.23917E-009 0.18145E-008

 MAXIMUM ABSOLUTE VALUES
 NODE         30           17           16           29           14           29
 VALUE  -0.68824E-008 0.52436E-007-0.30459E-007  12.394      0.20689E-008-0.45685E-008

 *** ANSYS - ENGINEERING ANALYSIS SYSTEM  RELEASE 2019 R3          19.5     ***
 DISTRIBUTED ANSYS Academic Research                           

 00208316  VERSION=WINDOWS x64   15:20:36  MAY 27, 2020 CP=      2.359

 unsaved_project--Modal (A5)                                                   


 
  ***** POST1 NODAL DEGREE OF FREEDOM LISTING *****                            
 
  LOAD STEP=     1  SUBSTEP=    60                                             
   FREQ=    16996.      LOAD CASE=   0                                         
 
  THE FOLLOWING DEGREE OF FREEDOM RESULTS ARE IN THE GLOBAL COORDINATE SYSTEM  
 
    NODE       UX           UY           UZ           ROTX         ROTY         ROTZ  
       1   0.0000       0.0000       0.0000       0.0000       0.0000       0.0000     
       2   0.0000      -51.170       0.0000     -0.13154E-008-0.29599E-010 0.14243     
       3  0.16241E-008 -46.493      0.43307E-008 0.15119E-008-0.12585E-010  2.7187     
       4 -0.19417E-008  48.773     -0.68598E-008 0.21592E-010-0.20846E-009 -1.3107     
       5   0.0000       37.341       0.0000      0.57980E-009 0.87078E-009  3.1763     
       6  0.48982E-008  49.815      0.40814E-008-0.18370E-008 0.40215E-009  1.0629     
       7 -0.49853E-008 -45.107      0.44009E-009 0.21799E-008-0.68289E-009 -2.1938     
       8   0.0000      -1.7765       0.0000      0.17362E-009-0.11427E-008 -4.6425     
       9 -0.84181E-008 -27.045      0.11798E-007-0.69595E-009 0.79061E-009 -3.9436     
      10  0.68852E-008  14.916     -0.64632E-008-0.79966E-009-0.45178E-009  4.4436     
      11   0.0000      -34.823       0.0000      0.21839E-008-0.77360E-010  3.4039     
      12  0.20033E-008 -11.483     -0.35099E-008 0.24692E-008 0.45331E-009  4.5269     
      13 -0.32678E-008  23.965      0.71703E-008-0.12148E-008-0.16381E-009 -4.1045     
      14   0.0000       51.134       0.0000      0.13335E-008 0.13782E-009-0.18205     
      15 -0.19317E-008  43.321     -0.50568E-008-0.43072E-008-0.11657E-008 -2.4727     
      16  0.16653E-008 -48.884      0.42821E-008 0.24814E-008-0.10814E-009  1.3739     
      17   0.0000      -37.653       0.0000      0.16758E-008-0.12529E-008 -3.1459     
      18  0.66163E-008 -49.919      0.57200E-008 0.39028E-009 0.52697E-009 -1.0221     
      19 -0.57709E-008  45.322     -0.49591E-008-0.23246E-008 0.56912E-009  2.1571     
      20   0.0000       2.2345       0.0000      0.11823E-008 0.75565E-009  4.6409     
      21 -0.60909E-008  27.433     -0.94805E-009 0.12806E-008-0.30737E-009  3.9215     
      22  0.67602E-008 -15.354     -0.35971E-008 0.43310E-008 0.27019E-009 -4.4313     
      23   0.0000       34.486       0.0000      0.27044E-008 0.11983E-008 -3.4321     
      24 -0.18258E-008  11.036      0.39489E-008-0.13405E-008-0.13147E-008 -4.5360     
      25  0.17068E-008 -23.559     -0.65127E-008-0.53646E-008 0.39621E-010  4.1238     
      26   0.0000      -51.094       0.0000     -0.54528E-008 0.11056E-008 0.22557     
      27 -0.51012E-008 -43.075     -0.18443E-008 0.63437E-008 0.17675E-008  2.5078     
      28  0.46411E-008  48.748     -0.16259E-008-0.19821E-008-0.69634E-009 -1.4134     
      29   0.0000       73.058       0.0000      0.55509E-008 0.51043E-009  6.4846     
      30  0.72016E-009  50.262      0.75083E-008-0.24470E-008-0.64087E-009  1.0049     
      31 -0.31085E-009 -42.608     -0.71616E-008 0.10031E-009-0.46669E-010 -1.8394     

 MAXIMUM ABSOLUTE VALUES
 NODE          9           29            9           27           27           29
 VALUE  -0.84181E-008  73.058      0.11798E-007 0.63437E-008 0.17675E-008  6.4846     

 *** ANSYS - ENGINEERING ANALYSIS SYSTEM  RELEASE 2019 R3          19.5     ***
 DISTRIBUTED ANSYS Academic Research                           

 00208316  VERSION=WINDOWS x64   15:20:36  MAY 27, 2020 CP=      2.359

 unsaved_project--Modal (A5)                                                   


 
  ***** POST1 NODAL DEGREE OF FREEDOM LISTING *****                            
 
  LOAD STEP=     1  SUBSTEP=    61                                             
   FREQ=    18133.      LOAD CASE=   0                                         
 
  THE FOLLOWING DEGREE OF FREEDOM RESULTS ARE IN THE GLOBAL COORDINATE SYSTEM  
 
    NODE       UX           UY           UZ           ROTX         ROTY         ROTZ  
       1   0.0000       0.0000       0.0000       0.0000       0.0000       0.0000     
       2   0.0000      0.62163E-007  0.0000      -8.7713      0.34122E-008-0.17737E-008
       3 -0.44764E-008 0.72250E-007 0.30333E-007  11.982      0.44243E-008-0.55079E-008
       4 -0.54185E-008-0.64676E-007-0.13821E-007  6.2022     -0.36479E-008 0.38200E-008
       5   0.0000     -0.65594E-007  0.0000       12.404     -0.57369E-008-0.55052E-008
       6 -0.49136E-008-0.62639E-007-0.59434E-008 -10.743     -0.35125E-008-0.19767E-009
       7 -0.74333E-008 0.64470E-007 0.89267E-008  3.2105      0.40979E-008 0.30284E-008
       8   0.0000      0.31294E-007  0.0000      -8.7713      0.58568E-008 0.10684E-007
       9 -0.70549E-008 0.59483E-007-0.53011E-008  3.2105      0.62286E-008 0.75511E-008
      10 -0.96539E-008-0.47154E-007 0.12166E-007 -10.743     -0.62824E-008-0.90236E-008
      11   0.0000      0.15955E-007  0.0000     -0.42366E-008-0.54315E-008-0.13756E-007
      12  0.19327E-007-0.11658E-007 0.74541E-008  6.2022     -0.51303E-008-0.12430E-007
      13  0.22386E-007-0.61397E-008-0.87848E-008  11.982      0.61490E-008 0.13332E-007
      14   0.0000     -0.39147E-007  0.0000       8.7713      0.35921E-008 0.14430E-007
      15 -0.82768E-008-0.22381E-007-0.16166E-007 -11.982      0.42420E-008 0.14048E-007
      16 -0.80972E-008 0.29725E-007 0.11942E-007 -6.2022     -0.40499E-008-0.14005E-007
      17   0.0000      0.65596E-007  0.0000      -12.404     -0.23966E-008-0.10072E-007
      18  0.11572E-007 0.47077E-007-0.10501E-007  10.743     -0.35945E-008-0.13151E-007
      19  0.16289E-007-0.54462E-007 0.82391E-008 -3.2105      0.34384E-008 0.12322E-007
      20   0.0000     -0.11431E-006  0.0000       8.7713     -0.54242E-009 0.53468E-008
      21  0.68087E-009-0.82964E-007-0.10461E-007 -3.2105      0.10083E-008 0.87189E-008
      22 -0.23966E-008 0.10015E-006 0.11145E-007  10.743     -0.77074E-009-0.68968E-008
      23   0.0000      0.14328E-006  0.0000      0.20649E-008-0.10415E-008 0.48922E-009
      24 -0.21156E-008 0.12647E-006-0.31354E-008 -6.2022      0.18985E-008-0.34257E-008
      25 -0.43730E-008-0.13739E-006 0.15684E-007 -11.982     -0.21135E-008 0.11387E-008
      26   0.0000     -0.15398E-006  0.0000      -8.7713      0.32518E-008-0.68467E-008
      27  0.14026E-007-0.14648E-006 0.22795E-007  11.982      0.42021E-008-0.22946E-008
      28  0.16248E-007 0.15180E-006-0.11564E-007  6.2022     -0.42490E-008 0.49339E-008
      29   0.0000      0.29783E-006  0.0000       12.404     -0.42086E-009 0.29626E-007
      30 -0.20980E-008 0.15005E-006-0.13042E-008 -10.743     -0.14777E-008 0.95362E-008
      31 -0.76799E-008-0.13770E-006 0.24830E-008  3.2105      0.67440E-009-0.10862E-007

 MAXIMUM ABSOLUTE VALUES
 NODE         13           29            3           29            9           29
 VALUE   0.22386E-007 0.29783E-006 0.30333E-007  12.404      0.62286E-008 0.29626E-007

 *** ANSYS - ENGINEERING ANALYSIS SYSTEM  RELEASE 2019 R3          19.5     ***
 DISTRIBUTED ANSYS Academic Research                           

 00208316  VERSION=WINDOWS x64   15:20:36  MAY 27, 2020 CP=      2.359

 unsaved_project--Modal (A5)                                                   


 
  ***** POST1 NODAL DEGREE OF FREEDOM LISTING *****                            
 
  LOAD STEP=     1  SUBSTEP=    62                                             
   FREQ=    18350.      LOAD CASE=   0                                         
 
  THE FOLLOWING DEGREE OF FREEDOM RESULTS ARE IN THE GLOBAL COORDINATE SYSTEM  
 
    NODE       UX           UY           UZ           ROTX         ROTY         ROTZ  
       1   0.0000       0.0000       0.0000       0.0000       0.0000       0.0000     
       2   0.0000       46.256       0.0000      0.21392E-007 0.45101E-009 -1.5011     
       3 -0.25425E-008  42.817     -0.10588E-007-0.29810E-007 0.70609E-009 -3.2192     
       4  0.51273E-008 -43.408      0.97488E-008-0.16719E-007 0.58704E-009  2.2222     
       5   0.0000      -47.574       0.0000     -0.25429E-007-0.27189E-008-0.87051     
       6  0.56235E-009 -47.784     -0.12588E-007 0.26266E-007-0.16383E-008 0.71971     
       7  0.15681E-008  48.234      0.27764E-008-0.11662E-007 0.22381E-008 0.76197E-001
       8   0.0000       39.219       0.0000      0.19987E-007 0.17058E-008  3.0631     
       9  0.21029E-007  45.821     -0.31696E-007-0.65324E-008-0.32311E-008  1.6448     
      10 -0.14191E-007 -43.014      0.17504E-007 0.26249E-007 0.29455E-008 -2.3813     
      11   0.0000      -22.876       0.0000     -0.13565E-007-0.39652E-009 -4.6317     
      12 -0.89154E-008 -34.523     -0.48868E-008-0.18803E-007-0.76917E-009 -3.6744     
      13  0.45812E-008  29.033     -0.84035E-008-0.14611E-007 0.77402E-009  4.2013     
      14   0.0000       1.8728       0.0000     -0.23687E-007 0.14566E-009  5.2569     
      15  0.21841E-008  16.193      0.10523E-007 0.36069E-007 0.16522E-008  4.9556     
      16  0.13914E-009 -9.1379     -0.61184E-008 0.15502E-007-0.63188E-009 -5.1656     
      17   0.0000       19.512       0.0000      0.27528E-007-0.61086E-009 -4.8113     
      18 -0.21924E-007  5.4353     -0.11361E-007-0.25780E-007-0.13474E-008 -5.2273     
      19  0.15200E-007 -12.619      0.13153E-007 0.94887E-008-0.63804E-009  5.0777     
      20   0.0000      -36.922       0.0000     -0.14200E-007-0.98229E-009  3.3857     
      21  0.14612E-007 -25.956     -0.72131E-008 0.53685E-008 0.21339E-008  4.4343     
      22 -0.17228E-007  31.805      0.10110E-007-0.30750E-007-0.10988E-008 -3.9555     
      23   0.0000       46.811       0.0000     -0.56956E-009-0.45066E-009 -1.2704     
      24  0.93633E-008  41.191     -0.98425E-008 0.12834E-007 0.18141E-008 -2.7381     
      25 -0.85534E-008 -44.512     -0.40003E-008 0.30225E-007 0.76379E-009  2.0276     
      26   0.0000      -47.149       0.0000      0.21546E-007-0.24916E-008 -1.1019     
      27  0.32976E-008 -48.034     -0.56789E-008-0.32005E-007-0.53743E-008 0.48413     
      28 -0.84603E-008  48.155     -0.69249E-008-0.10291E-007 0.41960E-008 0.31347     
      29   0.0000       72.955       0.0000     -0.33901E-007-0.22948E-008  6.7722     
      30  0.93490E-008  45.312     -0.22349E-007 0.26153E-007 0.15580E-008  1.8904     
      31 -0.81854E-008 -39.220      0.20242E-007-0.60872E-008 0.22928E-009 -2.3126     

 MAXIMUM ABSOLUTE VALUES
 NODE         18           29            9           15           27           29
 VALUE  -0.21924E-007  72.955     -0.31696E-007 0.36069E-007-0.53743E-008  6.7722     
